* NGSPICE file created from rlbp_macro.ext - technology: sky130B

* Black-box entry subcircuit for sky130_fd_sc_hd__fill_1 abstract view
.subckt sky130_fd_sc_hd__fill_1 VGND VNB VPB VPWR
.ends

* Black-box entry subcircuit for sky130_fd_sc_hd__decap_6 abstract view
.subckt sky130_fd_sc_hd__decap_6 VGND VNB VPB VPWR
.ends

* Black-box entry subcircuit for sky130_ef_sc_hd__decap_12 abstract view
.subckt sky130_ef_sc_hd__decap_12 VGND VPWR VPB VNB
.ends

* Black-box entry subcircuit for sky130_fd_sc_hd__decap_4 abstract view
.subckt sky130_fd_sc_hd__decap_4 VGND VNB VPB VPWR
.ends

* Black-box entry subcircuit for sky130_fd_sc_hd__decap_8 abstract view
.subckt sky130_fd_sc_hd__decap_8 VGND VNB VPB VPWR
.ends

* Black-box entry subcircuit for sky130_fd_sc_hd__fill_2 abstract view
.subckt sky130_fd_sc_hd__fill_2 VGND VNB VPB VPWR
.ends

* Black-box entry subcircuit for sky130_fd_sc_hd__o211a_1 abstract view
.subckt sky130_fd_sc_hd__o211a_1 A1 A2 B1 C1 VGND VNB VPB VPWR X
.ends

* Black-box entry subcircuit for sky130_fd_sc_hd__dfxtp_1 abstract view
.subckt sky130_fd_sc_hd__dfxtp_1 CLK D VGND VNB VPB VPWR Q
.ends

* Black-box entry subcircuit for sky130_fd_sc_hd__or3_1 abstract view
.subckt sky130_fd_sc_hd__or3_1 A B C VGND VNB VPB VPWR X
.ends

* Black-box entry subcircuit for sky130_fd_sc_hd__diode_2 abstract view
.subckt sky130_fd_sc_hd__diode_2 DIODE VGND VNB VPB VPWR
.ends

* Black-box entry subcircuit for sky130_fd_sc_hd__dlymetal6s2s_1 abstract view
.subckt sky130_fd_sc_hd__dlymetal6s2s_1 A VGND VNB VPB VPWR X
.ends

* Black-box entry subcircuit for sky130_fd_sc_hd__tapvpwrvgnd_1 abstract view
.subckt sky130_fd_sc_hd__tapvpwrvgnd_1 VGND VPWR
.ends

* Black-box entry subcircuit for sky130_fd_sc_hd__or2_1 abstract view
.subckt sky130_fd_sc_hd__or2_1 A B VGND VNB VPB VPWR X
.ends

* Black-box entry subcircuit for sky130_fd_sc_hd__clkbuf_1 abstract view
.subckt sky130_fd_sc_hd__clkbuf_1 A VGND VNB VPB VPWR X
.ends

* Black-box entry subcircuit for sky130_fd_sc_hd__decap_3 abstract view
.subckt sky130_fd_sc_hd__decap_3 VGND VNB VPB VPWR
.ends

* Black-box entry subcircuit for sky130_fd_sc_hd__and2_1 abstract view
.subckt sky130_fd_sc_hd__and2_1 A B VGND VNB VPB VPWR X
.ends

* Black-box entry subcircuit for sky130_fd_sc_hd__clkbuf_2 abstract view
.subckt sky130_fd_sc_hd__clkbuf_2 A VGND VNB VPB VPWR X
.ends

* Black-box entry subcircuit for sky130_fd_sc_hd__conb_1 abstract view
.subckt sky130_fd_sc_hd__conb_1 VGND VNB VPB VPWR HI LO
.ends

* Black-box entry subcircuit for sky130_fd_sc_hd__clkbuf_16 abstract view
.subckt sky130_fd_sc_hd__clkbuf_16 A VGND VNB VPB VPWR X
.ends

* Black-box entry subcircuit for sky130_fd_sc_hd__a221o_1 abstract view
.subckt sky130_fd_sc_hd__a221o_1 A1 A2 B1 B2 C1 VGND VNB VPB VPWR X
.ends

* Black-box entry subcircuit for sky130_fd_sc_hd__buf_2 abstract view
.subckt sky130_fd_sc_hd__buf_2 A VGND VNB VPB VPWR X
.ends

* Black-box entry subcircuit for sky130_fd_sc_hd__a22o_1 abstract view
.subckt sky130_fd_sc_hd__a22o_1 A1 A2 B1 B2 VGND VNB VPB VPWR X
.ends

* Black-box entry subcircuit for sky130_fd_sc_hd__o221a_1 abstract view
.subckt sky130_fd_sc_hd__o221a_1 A1 A2 B1 B2 C1 VGND VNB VPB VPWR X
.ends

* Black-box entry subcircuit for sky130_fd_sc_hd__or4_1 abstract view
.subckt sky130_fd_sc_hd__or4_1 A B C D VGND VNB VPB VPWR X
.ends

* Black-box entry subcircuit for sky130_fd_sc_hd__mux2_1 abstract view
.subckt sky130_fd_sc_hd__mux2_1 A0 A1 S VGND VNB VPB VPWR X
.ends

* Black-box entry subcircuit for sky130_fd_sc_hd__a21o_1 abstract view
.subckt sky130_fd_sc_hd__a21o_1 A1 A2 B1 VGND VNB VPB VPWR X
.ends

* Black-box entry subcircuit for sky130_fd_sc_hd__nor2_1 abstract view
.subckt sky130_fd_sc_hd__nor2_1 A B VGND VNB VPB VPWR Y
.ends

* Black-box entry subcircuit for sky130_fd_sc_hd__or3b_1 abstract view
.subckt sky130_fd_sc_hd__or3b_1 A B C_N VGND VNB VPB VPWR X
.ends

* Black-box entry subcircuit for sky130_fd_sc_hd__or4b_1 abstract view
.subckt sky130_fd_sc_hd__or4b_1 A B C D_N VGND VNB VPB VPWR X
.ends

* Black-box entry subcircuit for sky130_fd_sc_hd__and3_1 abstract view
.subckt sky130_fd_sc_hd__and3_1 A B C VGND VNB VPB VPWR X
.ends

* Black-box entry subcircuit for sky130_fd_sc_hd__nand2_1 abstract view
.subckt sky130_fd_sc_hd__nand2_1 A B VGND VNB VPB VPWR Y
.ends

* Black-box entry subcircuit for sky130_fd_sc_hd__or4bb_2 abstract view
.subckt sky130_fd_sc_hd__or4bb_2 A B C_N D_N VGND VNB VPB VPWR X
.ends

* Black-box entry subcircuit for sky130_fd_sc_hd__nor2_2 abstract view
.subckt sky130_fd_sc_hd__nor2_2 A B VGND VNB VPB VPWR Y
.ends

* Black-box entry subcircuit for sky130_fd_sc_hd__or4b_2 abstract view
.subckt sky130_fd_sc_hd__or4b_2 A B C D_N VGND VNB VPB VPWR X
.ends

* Black-box entry subcircuit for sky130_fd_sc_hd__or4b_4 abstract view
.subckt sky130_fd_sc_hd__or4b_4 A B C D_N VGND VNB VPB VPWR X
.ends

* Black-box entry subcircuit for sky130_fd_sc_hd__and2b_1 abstract view
.subckt sky130_fd_sc_hd__and2b_1 A_N B VGND VNB VPB VPWR X
.ends

* Black-box entry subcircuit for sky130_fd_sc_hd__and4bb_1 abstract view
.subckt sky130_fd_sc_hd__and4bb_1 A_N B_N C D VGND VNB VPB VPWR X
.ends

* Black-box entry subcircuit for sky130_fd_sc_hd__clkbuf_4 abstract view
.subckt sky130_fd_sc_hd__clkbuf_4 A VGND VNB VPB VPWR X
.ends

* Black-box entry subcircuit for sky130_fd_sc_hd__or4_2 abstract view
.subckt sky130_fd_sc_hd__or4_2 A B C D VGND VNB VPB VPWR X
.ends

* Black-box entry subcircuit for sky130_fd_sc_hd__nor4b_2 abstract view
.subckt sky130_fd_sc_hd__nor4b_2 A B C D_N VGND VNB VPB VPWR Y
.ends

* Black-box entry subcircuit for sky130_fd_sc_hd__or4_4 abstract view
.subckt sky130_fd_sc_hd__or4_4 A B C D VGND VNB VPB VPWR X
.ends

* Black-box entry subcircuit for sky130_fd_sc_hd__clkinv_2 abstract view
.subckt sky130_fd_sc_hd__clkinv_2 A VGND VNB VPB VPWR Y
.ends

.subckt rlbp_macro Sh Sh_cmp Sh_rst Sw1 Sw2 Vd1 Vd2 clk_o counter_rst data_o done_o
+ io_in[0] io_in[10] io_in[11] io_in[12] io_in[13] io_in[14] io_in[15] io_in[16] io_in[17]
+ io_in[18] io_in[19] io_in[1] io_in[20] io_in[21] io_in[22] io_in[23] io_in[24] io_in[25]
+ io_in[26] io_in[27] io_in[28] io_in[29] io_in[2] io_in[30] io_in[31] io_in[32] io_in[33]
+ io_in[34] io_in[35] io_in[36] io_in[37] io_in[3] io_in[4] io_in[5] io_in[6] io_in[7]
+ io_in[8] io_in[9] io_oeb[0] io_oeb[10] io_oeb[11] io_oeb[12] io_oeb[13] io_oeb[14]
+ io_oeb[15] io_oeb[16] io_oeb[17] io_oeb[18] io_oeb[19] io_oeb[1] io_oeb[20] io_oeb[21]
+ io_oeb[22] io_oeb[23] io_oeb[24] io_oeb[25] io_oeb[26] io_oeb[27] io_oeb[28] io_oeb[29]
+ io_oeb[2] io_oeb[30] io_oeb[31] io_oeb[32] io_oeb[33] io_oeb[34] io_oeb[35] io_oeb[36]
+ io_oeb[37] io_oeb[3] io_oeb[4] io_oeb[5] io_oeb[6] io_oeb[7] io_oeb[8] io_oeb[9]
+ io_out[0] io_out[10] io_out[11] io_out[12] io_out[13] io_out[14] io_out[15] io_out[16]
+ io_out[17] io_out[18] io_out[19] io_out[1] io_out[20] io_out[21] io_out[22] io_out[23]
+ io_out[24] io_out[25] io_out[26] io_out[27] io_out[28] io_out[29] io_out[2] io_out[30]
+ io_out[31] io_out[32] io_out[33] io_out[34] io_out[35] io_out[36] io_out[37] io_out[3]
+ io_out[4] io_out[5] io_out[6] io_out[7] io_out[8] io_out[9] irq[0] irq[1] irq[2]
+ la_data_in[0] la_data_in[100] la_data_in[101] la_data_in[102] la_data_in[103] la_data_in[104]
+ la_data_in[105] la_data_in[106] la_data_in[107] la_data_in[108] la_data_in[109]
+ la_data_in[10] la_data_in[110] la_data_in[111] la_data_in[112] la_data_in[113] la_data_in[114]
+ la_data_in[115] la_data_in[116] la_data_in[117] la_data_in[118] la_data_in[119]
+ la_data_in[11] la_data_in[120] la_data_in[121] la_data_in[122] la_data_in[123] la_data_in[124]
+ la_data_in[125] la_data_in[126] la_data_in[127] la_data_in[12] la_data_in[13] la_data_in[14]
+ la_data_in[15] la_data_in[16] la_data_in[17] la_data_in[18] la_data_in[19] la_data_in[1]
+ la_data_in[20] la_data_in[21] la_data_in[22] la_data_in[23] la_data_in[24] la_data_in[25]
+ la_data_in[26] la_data_in[27] la_data_in[28] la_data_in[29] la_data_in[2] la_data_in[30]
+ la_data_in[31] la_data_in[32] la_data_in[33] la_data_in[34] la_data_in[35] la_data_in[36]
+ la_data_in[37] la_data_in[38] la_data_in[39] la_data_in[3] la_data_in[40] la_data_in[41]
+ la_data_in[42] la_data_in[43] la_data_in[44] la_data_in[45] la_data_in[46] la_data_in[47]
+ la_data_in[48] la_data_in[49] la_data_in[4] la_data_in[50] la_data_in[51] la_data_in[52]
+ la_data_in[53] la_data_in[54] la_data_in[55] la_data_in[56] la_data_in[57] la_data_in[58]
+ la_data_in[59] la_data_in[5] la_data_in[60] la_data_in[61] la_data_in[62] la_data_in[63]
+ la_data_in[64] la_data_in[65] la_data_in[66] la_data_in[67] la_data_in[68] la_data_in[69]
+ la_data_in[6] la_data_in[70] la_data_in[71] la_data_in[72] la_data_in[73] la_data_in[74]
+ la_data_in[75] la_data_in[76] la_data_in[77] la_data_in[78] la_data_in[79] la_data_in[7]
+ la_data_in[80] la_data_in[81] la_data_in[82] la_data_in[83] la_data_in[84] la_data_in[85]
+ la_data_in[86] la_data_in[87] la_data_in[88] la_data_in[89] la_data_in[8] la_data_in[90]
+ la_data_in[91] la_data_in[92] la_data_in[93] la_data_in[94] la_data_in[95] la_data_in[96]
+ la_data_in[97] la_data_in[98] la_data_in[99] la_data_in[9] la_data_out[0] la_data_out[100]
+ la_data_out[101] la_data_out[102] la_data_out[103] la_data_out[104] la_data_out[105]
+ la_data_out[106] la_data_out[107] la_data_out[108] la_data_out[109] la_data_out[10]
+ la_data_out[110] la_data_out[111] la_data_out[112] la_data_out[113] la_data_out[114]
+ la_data_out[115] la_data_out[116] la_data_out[117] la_data_out[118] la_data_out[119]
+ la_data_out[11] la_data_out[120] la_data_out[121] la_data_out[122] la_data_out[123]
+ la_data_out[124] la_data_out[125] la_data_out[126] la_data_out[127] la_data_out[12]
+ la_data_out[13] la_data_out[14] la_data_out[15] la_data_out[16] la_data_out[17]
+ la_data_out[18] la_data_out[19] la_data_out[1] la_data_out[20] la_data_out[21] la_data_out[22]
+ la_data_out[23] la_data_out[24] la_data_out[25] la_data_out[26] la_data_out[27]
+ la_data_out[28] la_data_out[29] la_data_out[2] la_data_out[30] la_data_out[31] la_data_out[32]
+ la_data_out[33] la_data_out[34] la_data_out[35] la_data_out[36] la_data_out[37]
+ la_data_out[38] la_data_out[39] la_data_out[3] la_data_out[40] la_data_out[41] la_data_out[42]
+ la_data_out[43] la_data_out[44] la_data_out[45] la_data_out[46] la_data_out[47]
+ la_data_out[48] la_data_out[49] la_data_out[4] la_data_out[50] la_data_out[51] la_data_out[52]
+ la_data_out[53] la_data_out[54] la_data_out[55] la_data_out[56] la_data_out[57]
+ la_data_out[58] la_data_out[59] la_data_out[5] la_data_out[60] la_data_out[61] la_data_out[62]
+ la_data_out[63] la_data_out[64] la_data_out[65] la_data_out[66] la_data_out[67]
+ la_data_out[68] la_data_out[69] la_data_out[6] la_data_out[70] la_data_out[71] la_data_out[72]
+ la_data_out[73] la_data_out[74] la_data_out[75] la_data_out[76] la_data_out[77]
+ la_data_out[78] la_data_out[79] la_data_out[7] la_data_out[80] la_data_out[81] la_data_out[82]
+ la_data_out[83] la_data_out[84] la_data_out[85] la_data_out[86] la_data_out[87]
+ la_data_out[88] la_data_out[89] la_data_out[8] la_data_out[90] la_data_out[91] la_data_out[92]
+ la_data_out[93] la_data_out[94] la_data_out[95] la_data_out[96] la_data_out[97]
+ la_data_out[98] la_data_out[99] la_data_out[9] la_oenb[0] la_oenb[100] la_oenb[101]
+ la_oenb[102] la_oenb[103] la_oenb[104] la_oenb[105] la_oenb[106] la_oenb[107] la_oenb[108]
+ la_oenb[109] la_oenb[10] la_oenb[110] la_oenb[111] la_oenb[112] la_oenb[113] la_oenb[114]
+ la_oenb[115] la_oenb[116] la_oenb[117] la_oenb[118] la_oenb[119] la_oenb[11] la_oenb[120]
+ la_oenb[121] la_oenb[122] la_oenb[123] la_oenb[124] la_oenb[125] la_oenb[126] la_oenb[127]
+ la_oenb[12] la_oenb[13] la_oenb[14] la_oenb[15] la_oenb[16] la_oenb[17] la_oenb[18]
+ la_oenb[19] la_oenb[1] la_oenb[20] la_oenb[21] la_oenb[22] la_oenb[23] la_oenb[24]
+ la_oenb[25] la_oenb[26] la_oenb[27] la_oenb[28] la_oenb[29] la_oenb[2] la_oenb[30]
+ la_oenb[31] la_oenb[32] la_oenb[33] la_oenb[34] la_oenb[35] la_oenb[36] la_oenb[37]
+ la_oenb[38] la_oenb[39] la_oenb[3] la_oenb[40] la_oenb[41] la_oenb[42] la_oenb[43]
+ la_oenb[44] la_oenb[45] la_oenb[46] la_oenb[47] la_oenb[48] la_oenb[49] la_oenb[4]
+ la_oenb[50] la_oenb[51] la_oenb[52] la_oenb[53] la_oenb[54] la_oenb[55] la_oenb[56]
+ la_oenb[57] la_oenb[58] la_oenb[59] la_oenb[5] la_oenb[60] la_oenb[61] la_oenb[62]
+ la_oenb[63] la_oenb[64] la_oenb[65] la_oenb[66] la_oenb[67] la_oenb[68] la_oenb[69]
+ la_oenb[6] la_oenb[70] la_oenb[71] la_oenb[72] la_oenb[73] la_oenb[74] la_oenb[75]
+ la_oenb[76] la_oenb[77] la_oenb[78] la_oenb[79] la_oenb[7] la_oenb[80] la_oenb[81]
+ la_oenb[82] la_oenb[83] la_oenb[84] la_oenb[85] la_oenb[86] la_oenb[87] la_oenb[88]
+ la_oenb[89] la_oenb[8] la_oenb[90] la_oenb[91] la_oenb[92] la_oenb[93] la_oenb[94]
+ la_oenb[95] la_oenb[96] la_oenb[97] la_oenb[98] la_oenb[99] la_oenb[9] rst_o start_o
+ vccd1 vssd1 wb_clk_i wb_rst_i wbs_ack_o wbs_adr_i[0] wbs_adr_i[10] wbs_adr_i[11]
+ wbs_adr_i[12] wbs_adr_i[13] wbs_adr_i[14] wbs_adr_i[15] wbs_adr_i[16] wbs_adr_i[17]
+ wbs_adr_i[18] wbs_adr_i[19] wbs_adr_i[1] wbs_adr_i[20] wbs_adr_i[21] wbs_adr_i[22]
+ wbs_adr_i[23] wbs_adr_i[24] wbs_adr_i[25] wbs_adr_i[26] wbs_adr_i[27] wbs_adr_i[28]
+ wbs_adr_i[29] wbs_adr_i[2] wbs_adr_i[30] wbs_adr_i[31] wbs_adr_i[3] wbs_adr_i[4]
+ wbs_adr_i[5] wbs_adr_i[6] wbs_adr_i[7] wbs_adr_i[8] wbs_adr_i[9] wbs_cyc_i wbs_dat_i[0]
+ wbs_dat_i[10] wbs_dat_i[11] wbs_dat_i[12] wbs_dat_i[13] wbs_dat_i[14] wbs_dat_i[15]
+ wbs_dat_i[16] wbs_dat_i[17] wbs_dat_i[18] wbs_dat_i[19] wbs_dat_i[1] wbs_dat_i[20]
+ wbs_dat_i[21] wbs_dat_i[22] wbs_dat_i[23] wbs_dat_i[24] wbs_dat_i[25] wbs_dat_i[26]
+ wbs_dat_i[27] wbs_dat_i[28] wbs_dat_i[29] wbs_dat_i[2] wbs_dat_i[30] wbs_dat_i[31]
+ wbs_dat_i[3] wbs_dat_i[4] wbs_dat_i[5] wbs_dat_i[6] wbs_dat_i[7] wbs_dat_i[8] wbs_dat_i[9]
+ wbs_dat_o[0] wbs_dat_o[10] wbs_dat_o[11] wbs_dat_o[12] wbs_dat_o[13] wbs_dat_o[14]
+ wbs_dat_o[15] wbs_dat_o[16] wbs_dat_o[17] wbs_dat_o[18] wbs_dat_o[19] wbs_dat_o[1]
+ wbs_dat_o[20] wbs_dat_o[21] wbs_dat_o[22] wbs_dat_o[23] wbs_dat_o[24] wbs_dat_o[25]
+ wbs_dat_o[26] wbs_dat_o[27] wbs_dat_o[28] wbs_dat_o[29] wbs_dat_o[2] wbs_dat_o[30]
+ wbs_dat_o[31] wbs_dat_o[3] wbs_dat_o[4] wbs_dat_o[5] wbs_dat_o[6] wbs_dat_o[7] wbs_dat_o[8]
+ wbs_dat_o[9] wbs_sel_i[0] wbs_sel_i[1] wbs_sel_i[2] wbs_sel_i[3] wbs_stb_i wbs_we_i
XFILLER_79_391 vssd1 vssd1 vccd1 vccd1 sky130_fd_sc_hd__fill_1
XFILLER_67_553 vssd1 vssd1 vccd1 vccd1 sky130_fd_sc_hd__decap_6
XFILLER_82_501 vssd1 vccd1 vccd1 vssd1 sky130_ef_sc_hd__decap_12
XFILLER_82_545 vssd1 vccd1 vccd1 vssd1 sky130_ef_sc_hd__decap_12
XFILLER_67_597 vssd1 vccd1 vccd1 vssd1 sky130_ef_sc_hd__decap_12
XFILLER_82_589 vssd1 vccd1 vccd1 vssd1 sky130_ef_sc_hd__decap_12
XFILLER_70_729 vssd1 vssd1 vccd1 vccd1 sky130_fd_sc_hd__decap_4
XFILLER_35_461 vssd1 vccd1 vccd1 vssd1 sky130_ef_sc_hd__decap_12
XFILLER_52_29 vssd1 vccd1 vccd1 vssd1 sky130_ef_sc_hd__decap_12
XFILLER_50_475 vssd1 vssd1 vccd1 vccd1 sky130_fd_sc_hd__fill_1
XFILLER_10_317 vssd1 vssd1 vccd1 vccd1 sky130_fd_sc_hd__decap_8
XFILLER_22_144 vssd1 vssd1 vccd1 vccd1 sky130_fd_sc_hd__decap_4
XFILLER_89_111 vssd1 vssd1 vccd1 vccd1 sky130_fd_sc_hd__fill_1
XFILLER_2_538 vssd1 vssd1 vccd1 vccd1 sky130_fd_sc_hd__decap_4
XFILLER_77_15 vssd1 vccd1 vccd1 vssd1 sky130_ef_sc_hd__decap_12
XFILLER_77_317 vssd1 vccd1 vccd1 vssd1 sky130_ef_sc_hd__decap_12
XFILLER_58_531 vssd1 vssd1 vccd1 vccd1 sky130_fd_sc_hd__fill_1
XFILLER_92_309 vssd1 vccd1 vccd1 vssd1 sky130_ef_sc_hd__decap_12
XFILLER_85_361 vssd1 vccd1 vccd1 vssd1 sky130_ef_sc_hd__decap_12
XFILLER_45_225 vssd1 vccd1 vccd1 vssd1 sky130_ef_sc_hd__decap_12
XFILLER_93_69 vssd1 vccd1 vccd1 vssd1 sky130_ef_sc_hd__decap_12
XFILLER_61_729 vssd1 vssd1 vccd1 vccd1 sky130_fd_sc_hd__decap_4
XFILLER_14_601 vssd1 vccd1 vccd1 vssd1 sky130_ef_sc_hd__decap_12
XFILLER_26_74 vssd1 vssd1 vccd1 vccd1 sky130_fd_sc_hd__decap_4
XFILLER_13_111 vssd1 vssd1 vccd1 vccd1 sky130_fd_sc_hd__fill_1
XFILLER_14_645 vssd1 vccd1 vccd1 vssd1 sky130_ef_sc_hd__decap_12
XFILLER_26_85 vssd1 vccd1 vccd1 vssd1 sky130_ef_sc_hd__decap_12
XFILLER_41_497 vssd1 vssd1 vccd1 vccd1 sky130_fd_sc_hd__decap_6
XFILLER_42_62 vssd1 vssd1 vccd1 vccd1 sky130_fd_sc_hd__decap_4
XFILLER_5_310 vssd1 vssd1 vccd1 vccd1 sky130_fd_sc_hd__fill_2
XFILLER_5_365 vssd1 vssd1 vccd1 vccd1 sky130_fd_sc_hd__decap_4
XFILLER_5_398 vssd1 vccd1 vccd1 vssd1 sky130_ef_sc_hd__decap_12
XFILLER_3_12 vssd1 vssd1 vccd1 vccd1 sky130_fd_sc_hd__decap_6
XFILLER_96_637 vssd1 vssd1 vccd1 vccd1 sky130_fd_sc_hd__decap_6
XFILLER_3_45 vssd1 vssd1 vccd1 vccd1 sky130_fd_sc_hd__decap_4
XFILLER_1_571 vssd1 vssd1 vccd1 vccd1 sky130_fd_sc_hd__decap_4
XFILLER_95_125 vssd1 vccd1 vccd1 vssd1 sky130_ef_sc_hd__decap_12
X_1270_ _1229_/X _1265_/X _1269_/X _1263_/X vssd1 vssd1 vccd1 vccd1 _1718_/D sky130_fd_sc_hd__o211a_1
XFILLER_95_169 vssd1 vccd1 vccd1 vssd1 sky130_ef_sc_hd__decap_12
XFILLER_67_81 vssd1 vccd1 vccd1 vssd1 sky130_ef_sc_hd__decap_12
XFILLER_64_501 vssd1 vccd1 vccd1 vssd1 sky130_ef_sc_hd__decap_12
XFILLER_49_553 vssd1 vssd1 vccd1 vccd1 sky130_fd_sc_hd__decap_6
XFILLER_49_597 vssd1 vccd1 vccd1 vssd1 sky130_ef_sc_hd__decap_12
XFILLER_64_545 vssd1 vccd1 vccd1 vssd1 sky130_ef_sc_hd__decap_12
XFILLER_36_236 vssd1 vssd1 vccd1 vccd1 sky130_fd_sc_hd__decap_4
XFILLER_36_269 vssd1 vssd1 vccd1 vccd1 sky130_fd_sc_hd__decap_4
XFILLER_64_589 vssd1 vccd1 vccd1 vssd1 sky130_ef_sc_hd__decap_12
XFILLER_52_729 vssd1 vssd1 vccd1 vccd1 sky130_fd_sc_hd__decap_4
XFILLER_17_461 vssd1 vccd1 vccd1 vssd1 sky130_ef_sc_hd__decap_12
XFILLER_32_475 vssd1 vssd1 vccd1 vccd1 sky130_fd_sc_hd__fill_1
XFILLER_20_637 vssd1 vssd1 vccd1 vccd1 sky130_fd_sc_hd__decap_6
XFILLER_9_671 vssd1 vssd1 vccd1 vccd1 sky130_fd_sc_hd__fill_1
X_0985_ _0878_/X _0975_/X _0984_/X _0982_/X vssd1 vssd1 vccd1 vccd1 _1632_/D sky130_fd_sc_hd__o211a_1
XFILLER_8_181 vssd1 vssd1 vccd1 vccd1 sky130_fd_sc_hd__decap_8
XFILLER_8_192 vssd1 vssd1 vccd1 vccd1 sky130_fd_sc_hd__decap_4
X_1606_ _1644_/CLK _1606_/D vssd1 vssd1 vccd1 vccd1 _1606_/Q sky130_fd_sc_hd__dfxtp_1
XFILLER_99_497 vssd1 vssd1 vccd1 vccd1 sky130_fd_sc_hd__decap_6
XFILLER_87_615 vssd1 vssd1 vccd1 vccd1 sky130_fd_sc_hd__fill_1
XFILLER_59_317 vssd1 vccd1 vccd1 vssd1 sky130_ef_sc_hd__decap_12
X_1537_ _1537_/A _1537_/B _1537_/C vssd1 vssd1 vccd1 vccd1 _1537_/X sky130_fd_sc_hd__or3_1
XANTENNA__1354__A _1385_/A vssd1 vssd1 vccd1 vccd1 sky130_fd_sc_hd__diode_2
X_1468_ _1468_/A vssd1 vssd1 vccd1 vccd1 _1468_/X sky130_fd_sc_hd__dlymetal6s2s_1
XFILLER_74_309 vssd1 vccd1 vccd1 vssd1 sky130_ef_sc_hd__decap_12
XFILLER_67_361 vssd1 vccd1 vccd1 vssd1 sky130_ef_sc_hd__decap_12
X_1399_ _1223_/A _1395_/X _1397_/X _1398_/X vssd1 vssd1 vccd1 vccd1 _1761_/D sky130_fd_sc_hd__o211a_1
XFILLER_27_225 vssd1 vssd1 vccd1 vccd1 sky130_fd_sc_hd__decap_4
XFILLER_15_409 vssd1 vssd1 vccd1 vccd1 sky130_fd_sc_hd__decap_4
XTAP_1129 vssd1 vccd1 sky130_fd_sc_hd__tapvpwrvgnd_1
XTAP_1118 vssd1 vccd1 sky130_fd_sc_hd__tapvpwrvgnd_1
XTAP_1107 vssd1 vccd1 sky130_fd_sc_hd__tapvpwrvgnd_1
XFILLER_63_39 vssd1 vccd1 vccd1 vssd1 sky130_ef_sc_hd__decap_12
XFILLER_42_228 vssd1 vssd1 vccd1 vccd1 sky130_fd_sc_hd__decap_4
XFILLER_43_729 vssd1 vssd1 vccd1 vccd1 sky130_fd_sc_hd__decap_4
XFILLER_11_615 vssd1 vssd1 vccd1 vccd1 sky130_fd_sc_hd__fill_1
XFILLER_50_294 vssd1 vccd1 vccd1 vssd1 sky130_ef_sc_hd__decap_12
XFILLER_10_103 vssd1 vssd1 vccd1 vccd1 sky130_fd_sc_hd__decap_4
XFILLER_23_497 vssd1 vssd1 vccd1 vccd1 sky130_fd_sc_hd__decap_6
XFILLER_10_136 vssd1 vssd1 vccd1 vccd1 sky130_fd_sc_hd__decap_4
XFILLER_12_65 vssd1 vssd1 vccd1 vccd1 sky130_fd_sc_hd__decap_4
XFILLER_2_313 vssd1 vssd1 vccd1 vccd1 sky130_fd_sc_hd__decap_6
XFILLER_78_637 vssd1 vssd1 vccd1 vccd1 sky130_fd_sc_hd__decap_6
XFILLER_77_125 vssd1 vccd1 vccd1 vssd1 sky130_ef_sc_hd__decap_12
XFILLER_93_629 vssd1 vccd1 vccd1 vssd1 sky130_ef_sc_hd__decap_12
XFILLER_77_169 vssd1 vccd1 vccd1 vssd1 sky130_ef_sc_hd__decap_12
XFILLER_46_501 vssd1 vccd1 vccd1 vssd1 sky130_ef_sc_hd__decap_12
XFILLER_92_139 vssd1 vssd1 vccd1 vccd1 sky130_fd_sc_hd__fill_1
XFILLER_86_681 vssd1 vccd1 vccd1 vssd1 sky130_ef_sc_hd__decap_12
XFILLER_46_545 vssd1 vccd1 vccd1 vssd1 sky130_ef_sc_hd__decap_12
XFILLER_33_206 vssd1 vssd1 vccd1 vccd1 sky130_fd_sc_hd__decap_4
XFILLER_46_589 vssd1 vccd1 vccd1 vssd1 sky130_ef_sc_hd__decap_12
XFILLER_61_559 vssd1 vssd1 vccd1 vccd1 sky130_fd_sc_hd__fill_1
XFILLER_14_475 vssd1 vssd1 vccd1 vccd1 sky130_fd_sc_hd__fill_1
XFILLER_10_681 vssd1 vccd1 vccd1 vssd1 sky130_ef_sc_hd__decap_12
XFILLER_5_173 vssd1 vssd1 vccd1 vccd1 sky130_fd_sc_hd__fill_1
XFILLER_96_401 vssd1 vccd1 vccd1 vssd1 sky130_ef_sc_hd__decap_12
XFILLER_69_615 vssd1 vssd1 vccd1 vccd1 sky130_fd_sc_hd__fill_1
XFILLER_96_445 vssd1 vccd1 vccd1 vssd1 sky130_ef_sc_hd__decap_12
X_1322_ _1736_/Q _1328_/B vssd1 vssd1 vccd1 vccd1 _1322_/X sky130_fd_sc_hd__or2_1
XFILLER_96_489 vssd1 vccd1 vccd1 vssd1 sky130_ef_sc_hd__decap_12
XFILLER_56_309 vssd1 vccd1 vccd1 vssd1 sky130_ef_sc_hd__decap_12
X_1253_ _1278_/B vssd1 vssd1 vccd1 vccd1 _1262_/B sky130_fd_sc_hd__clkbuf_1
XFILLER_49_361 vssd1 vccd1 vccd1 vssd1 sky130_ef_sc_hd__decap_12
X_1184_ _1043_/X _1171_/X _1183_/X _1177_/X vssd1 vssd1 vccd1 vccd1 _1694_/D sky130_fd_sc_hd__o211a_1
XFILLER_91_161 vssd1 vssd1 vccd1 vccd1 sky130_fd_sc_hd__decap_6
XFILLER_25_729 vssd1 vssd1 vccd1 vccd1 sky130_fd_sc_hd__decap_4
XANTENNA_clkbuf_leaf_4_wb_clk_i_A clkbuf_leaf_7_wb_clk_i/A vssd1 vssd1 vccd1 vccd1
+ sky130_fd_sc_hd__diode_2
XFILLER_60_581 vssd1 vssd1 vccd1 vccd1 sky130_fd_sc_hd__decap_6
XFILLER_32_283 vssd1 vssd1 vccd1 vccd1 sky130_fd_sc_hd__decap_6
XFILLER_20_445 vssd1 vccd1 vccd1 vssd1 sky130_ef_sc_hd__decap_12
XANTENNA__1349__A _1382_/A vssd1 vssd1 vccd1 vccd1 sky130_fd_sc_hd__diode_2
X_0968_ _1626_/Q _0973_/B vssd1 vssd1 vccd1 vccd1 _0968_/X sky130_fd_sc_hd__or2_1
XFILLER_20_489 vssd1 vccd1 vccd1 vssd1 sky130_ef_sc_hd__decap_12
X_0899_ _0854_/X _0892_/X _0898_/X _0886_/X vssd1 vssd1 vccd1 vccd1 _1603_/D sky130_fd_sc_hd__o211a_1
XFILLER_99_261 vssd1 vccd1 vccd1 vssd1 sky130_ef_sc_hd__decap_12
XANTENNA__1084__A _1243_/A vssd1 vssd1 vccd1 vccd1 sky130_fd_sc_hd__diode_2
XFILLER_59_125 vssd1 vccd1 vccd1 vssd1 sky130_ef_sc_hd__decap_12
XFILLER_75_629 vssd1 vccd1 vccd1 vssd1 sky130_ef_sc_hd__decap_12
XFILLER_59_169 vssd1 vccd1 vccd1 vssd1 sky130_ef_sc_hd__decap_12
XFILLER_74_139 vssd1 vssd1 vccd1 vccd1 sky130_fd_sc_hd__fill_1
XFILLER_68_681 vssd1 vccd1 vccd1 vssd1 sky130_ef_sc_hd__decap_12
XFILLER_28_501 vssd1 vccd1 vccd1 vssd1 sky130_ef_sc_hd__decap_12
XFILLER_74_27 vssd1 vssd1 vccd1 vccd1 sky130_fd_sc_hd__fill_1
XFILLER_28_545 vssd1 vccd1 vccd1 vssd1 sky130_ef_sc_hd__decap_12
XFILLER_83_673 vssd1 vccd1 vccd1 vssd1 sky130_ef_sc_hd__decap_12
XFILLER_70_301 vssd1 vssd1 vccd1 vccd1 sky130_fd_sc_hd__decap_6
XFILLER_28_589 vssd1 vccd1 vccd1 vssd1 sky130_ef_sc_hd__decap_12
XFILLER_70_345 vssd1 vccd1 vccd1 vssd1 sky130_ef_sc_hd__decap_12
XFILLER_43_559 vssd1 vssd1 vccd1 vccd1 sky130_fd_sc_hd__fill_1
XFILLER_90_15 vssd1 vccd1 vccd1 vssd1 sky130_ef_sc_hd__decap_12
XFILLER_70_389 vssd1 vccd1 vccd1 vssd1 sky130_ef_sc_hd__decap_12
XFILLER_23_261 vssd1 vssd1 vccd1 vccd1 sky130_fd_sc_hd__decap_4
XFILLER_23_42 vssd1 vssd1 vccd1 vccd1 sky130_fd_sc_hd__fill_1
XFILLER_7_449 vssd1 vccd1 vccd1 vssd1 sky130_ef_sc_hd__decap_12
XFILLER_99_57 vssd1 vccd1 vccd1 vssd1 sky130_ef_sc_hd__decap_12
XFILLER_3_655 vssd1 vccd1 vccd1 vssd1 sky130_ef_sc_hd__decap_12
XFILLER_78_401 vssd1 vccd1 vccd1 vssd1 sky130_ef_sc_hd__decap_12
XFILLER_2_154 vssd1 vssd1 vccd1 vccd1 sky130_fd_sc_hd__decap_4
XFILLER_78_445 vssd1 vccd1 vccd1 vssd1 sky130_ef_sc_hd__decap_12
XFILLER_78_489 vssd1 vccd1 vccd1 vssd1 sky130_ef_sc_hd__decap_12
XFILLER_48_83 vssd1 vssd1 vccd1 vccd1 sky130_fd_sc_hd__fill_1
XFILLER_0_24 vssd1 vssd1 vccd1 vccd1 sky130_fd_sc_hd__decap_4
XFILLER_80_109 vssd1 vccd1 vccd1 vssd1 sky130_ef_sc_hd__decap_12
XFILLER_73_161 vssd1 vssd1 vccd1 vccd1 sky130_fd_sc_hd__decap_6
XFILLER_0_57 vssd1 vssd1 vccd1 vccd1 sky130_fd_sc_hd__decap_3
XTAP_1460 vssd1 vccd1 sky130_fd_sc_hd__tapvpwrvgnd_1
XTAP_1493 vssd1 vccd1 sky130_fd_sc_hd__tapvpwrvgnd_1
XTAP_1482 vssd1 vccd1 sky130_fd_sc_hd__tapvpwrvgnd_1
XTAP_1471 vssd1 vccd1 sky130_fd_sc_hd__tapvpwrvgnd_1
XFILLER_9_44 vssd1 vssd1 vccd1 vccd1 sky130_fd_sc_hd__fill_1
XFILLER_42_581 vssd1 vssd1 vccd1 vccd1 sky130_fd_sc_hd__decap_6
X_0822_ _0822_/A _0822_/B vssd1 vssd1 vccd1 vccd1 _0823_/A sky130_fd_sc_hd__and2_1
XFILLER_88_209 vssd1 vccd1 vccd1 vssd1 sky130_ef_sc_hd__decap_12
XFILLER_96_253 vssd1 vccd1 vccd1 vssd1 sky130_ef_sc_hd__decap_12
X_1305_ _1731_/Q _1308_/B vssd1 vssd1 vccd1 vccd1 _1305_/X sky130_fd_sc_hd__or2_1
XFILLER_57_629 vssd1 vccd1 vccd1 vssd1 sky130_ef_sc_hd__decap_12
XFILLER_56_139 vssd1 vssd1 vccd1 vccd1 sky130_fd_sc_hd__fill_1
X_1236_ _1709_/Q _1239_/B vssd1 vssd1 vccd1 vccd1 _1236_/X sky130_fd_sc_hd__or2_1
XFILLER_65_673 vssd1 vccd1 vccd1 vssd1 sky130_ef_sc_hd__decap_12
XFILLER_52_301 vssd1 vssd1 vccd1 vccd1 sky130_fd_sc_hd__decap_6
X_1167_ _1064_/X _1152_/A _1166_/X _1160_/X vssd1 vssd1 vccd1 vccd1 _1689_/D sky130_fd_sc_hd__o211a_1
XFILLER_37_375 vssd1 vccd1 vccd1 vssd1 sky130_ef_sc_hd__decap_12
XFILLER_80_643 vssd1 vssd1 vccd1 vccd1 sky130_fd_sc_hd__fill_1
XFILLER_25_559 vssd1 vssd1 vccd1 vccd1 sky130_fd_sc_hd__fill_1
XFILLER_52_345 vssd1 vccd1 vccd1 vssd1 sky130_ef_sc_hd__decap_12
X_1098_ _1146_/A vssd1 vssd1 vccd1 vccd1 _1098_/X sky130_fd_sc_hd__clkbuf_2
XFILLER_52_389 vssd1 vccd1 vccd1 vssd1 sky130_ef_sc_hd__decap_12
XFILLER_21_721 vssd1 vssd1 vccd1 vccd1 sky130_fd_sc_hd__decap_6
XFILLER_60_29 vssd1 vccd1 vccd1 vssd1 sky130_ef_sc_hd__decap_12
XFILLER_20_253 vssd1 vssd1 vccd1 vccd1 sky130_fd_sc_hd__decap_4
XFILLER_69_27 vssd1 vccd1 vccd1 vssd1 sky130_ef_sc_hd__decap_12
Xrlbp_macro_203 vssd1 vssd1 vccd1 vccd1 rlbp_macro_203/HI la_data_out[70] sky130_fd_sc_hd__conb_1
Xrlbp_macro_214 vssd1 vssd1 vccd1 vccd1 rlbp_macro_214/HI la_data_out[81] sky130_fd_sc_hd__conb_1
Xrlbp_macro_236 vssd1 vssd1 vccd1 vccd1 rlbp_macro_236/HI la_data_out[103] sky130_fd_sc_hd__conb_1
Xrlbp_macro_225 vssd1 vssd1 vccd1 vccd1 rlbp_macro_225/HI la_data_out[92] sky130_fd_sc_hd__conb_1
Xrlbp_macro_247 vssd1 vssd1 vccd1 vccd1 rlbp_macro_247/HI la_data_out[114] sky130_fd_sc_hd__conb_1
Xrlbp_macro_258 vssd1 vssd1 vccd1 vccd1 rlbp_macro_258/HI la_data_out[125] sky130_fd_sc_hd__conb_1
XFILLER_0_614 vssd1 vssd1 vccd1 vccd1 sky130_fd_sc_hd__fill_2
XFILLER_85_15 vssd1 vccd1 vccd1 vssd1 sky130_ef_sc_hd__decap_12
Xrlbp_macro_269 vssd1 vssd1 vccd1 vccd1 rlbp_macro_269/HI wbs_dat_o[18] sky130_fd_sc_hd__conb_1
XFILLER_28_320 vssd1 vssd1 vccd1 vccd1 sky130_fd_sc_hd__decap_4
XFILLER_62_109 vssd1 vccd1 vccd1 vssd1 sky130_ef_sc_hd__decap_12
XFILLER_55_161 vssd1 vssd1 vccd1 vccd1 sky130_fd_sc_hd__decap_6
XFILLER_43_323 vssd1 vssd1 vccd1 vccd1 sky130_fd_sc_hd__decap_4
XFILLER_71_665 vssd1 vssd1 vccd1 vccd1 sky130_fd_sc_hd__decap_6
XFILLER_70_153 vssd1 vccd1 vccd1 vssd1 sky130_ef_sc_hd__decap_12
XFILLER_24_581 vssd1 vssd1 vccd1 vccd1 sky130_fd_sc_hd__decap_6
XFILLER_31_529 vssd1 vccd1 vccd1 vssd1 sky130_ef_sc_hd__decap_12
XFILLER_70_197 vssd1 vccd1 vccd1 vssd1 sky130_ef_sc_hd__decap_12
XFILLER_34_85 vssd1 vssd1 vccd1 vccd1 sky130_fd_sc_hd__fill_1
XFILLER_8_725 vssd1 vssd1 vccd1 vccd1 sky130_fd_sc_hd__decap_8
XFILLER_7_202 vssd1 vssd1 vccd1 vccd1 sky130_fd_sc_hd__decap_4
XFILLER_7_246 vssd1 vssd1 vccd1 vccd1 sky130_fd_sc_hd__decap_4
XFILLER_3_441 vssd1 vssd1 vccd1 vccd1 sky130_fd_sc_hd__decap_6
XTAP_507 vssd1 vccd1 sky130_fd_sc_hd__tapvpwrvgnd_1
XFILLER_79_721 vssd1 vssd1 vccd1 vccd1 sky130_fd_sc_hd__decap_6
XFILLER_3_485 vssd1 vccd1 vccd1 vssd1 sky130_ef_sc_hd__decap_12
XTAP_518 vssd1 vccd1 sky130_fd_sc_hd__tapvpwrvgnd_1
XTAP_529 vssd1 vccd1 sky130_fd_sc_hd__tapvpwrvgnd_1
XFILLER_78_253 vssd1 vccd1 vccd1 vssd1 sky130_ef_sc_hd__decap_12
XFILLER_59_93 vssd1 vccd1 vccd1 vssd1 sky130_ef_sc_hd__decap_12
XFILLER_94_713 vssd1 vccd1 vccd1 vssd1 sky130_ef_sc_hd__decap_12
XFILLER_39_629 vssd1 vccd1 vccd1 vssd1 sky130_ef_sc_hd__decap_12
XFILLER_93_223 vssd1 vssd1 vccd1 vccd1 sky130_fd_sc_hd__fill_1
XFILLER_81_429 vssd1 vccd1 vccd1 vssd1 sky130_ef_sc_hd__decap_12
XFILLER_75_81 vssd1 vccd1 vccd1 vssd1 sky130_ef_sc_hd__decap_12
X_1021_ _1645_/Q _1021_/B vssd1 vssd1 vccd1 vccd1 _1021_/X sky130_fd_sc_hd__or2_1
XFILLER_47_673 vssd1 vccd1 vccd1 vssd1 sky130_ef_sc_hd__decap_12
XFILLER_62_643 vssd1 vssd1 vccd1 vccd1 sky130_fd_sc_hd__fill_1
XFILLER_98_3 vssd1 vccd1 vccd1 vssd1 sky130_ef_sc_hd__decap_12
XTAP_1290 vssd1 vccd1 sky130_fd_sc_hd__tapvpwrvgnd_1
X_0805_ _0805_/A vssd1 vssd1 vccd1 vccd1 _1580_/D sky130_fd_sc_hd__clkbuf_1
XFILLER_89_529 vssd1 vccd1 vccd1 vssd1 sky130_ef_sc_hd__decap_12
XFILLER_6_290 vssd1 vssd1 vccd1 vccd1 sky130_fd_sc_hd__decap_8
XFILLER_97_573 vssd1 vccd1 vccd1 vssd1 sky130_ef_sc_hd__decap_12
XFILLER_85_724 vssd1 vssd1 vccd1 vccd1 sky130_fd_sc_hd__decap_4
XFILLER_84_245 vssd1 vssd1 vccd1 vccd1 sky130_fd_sc_hd__decap_6
XFILLER_84_289 vssd1 vccd1 vccd1 vssd1 sky130_ef_sc_hd__decap_12
X_1219_ _1217_/X _1205_/X _1218_/X _1209_/X vssd1 vssd1 vccd1 vccd1 _1704_/D sky130_fd_sc_hd__o211a_1
XFILLER_53_665 vssd1 vssd1 vccd1 vccd1 sky130_fd_sc_hd__decap_6
XFILLER_13_529 vssd1 vccd1 vccd1 vssd1 sky130_ef_sc_hd__decap_12
XFILLER_71_39 vssd1 vccd1 vccd1 vssd1 sky130_ef_sc_hd__decap_12
XFILLER_21_573 vssd1 vccd1 vccd1 vssd1 sky130_ef_sc_hd__decap_12
XFILLER_20_21 vssd1 vssd1 vccd1 vccd1 sky130_fd_sc_hd__decap_6
XFILLER_76_713 vssd1 vccd1 vccd1 vssd1 sky130_ef_sc_hd__decap_12
XFILLER_0_466 vssd1 vssd1 vccd1 vccd1 sky130_fd_sc_hd__decap_8
XFILLER_75_223 vssd1 vssd1 vccd1 vccd1 sky130_fd_sc_hd__fill_1
XFILLER_91_727 vssd1 vssd1 vccd1 vccd1 sky130_fd_sc_hd__fill_1
XANTENNA_input18_A wbs_dat_i[1] vssd1 vssd1 vccd1 vccd1 sky130_fd_sc_hd__diode_2
XFILLER_29_673 vssd1 vccd1 vccd1 vssd1 sky130_ef_sc_hd__decap_12
XFILLER_63_429 vssd1 vccd1 vccd1 vssd1 sky130_ef_sc_hd__decap_12
XFILLER_16_345 vssd1 vssd1 vccd1 vccd1 sky130_fd_sc_hd__decap_4
XFILLER_44_643 vssd1 vssd1 vccd1 vccd1 sky130_fd_sc_hd__fill_1
XFILLER_71_473 vssd1 vccd1 vccd1 vssd1 sky130_ef_sc_hd__decap_12
XFILLER_16_389 vssd1 vssd1 vccd1 vccd1 sky130_fd_sc_hd__fill_1