*SPEF "ieee 1481-1999"
*DESIGN "pixel_macro"
*DATE "11:11:11 Fri 11 11, 1111"
*VENDOR "OpenRCX"
*PROGRAM "Parallel Extraction"
*VERSION "1.0"
*DESIGN_FLOW "NAME_SCOPE LOCAL" "PIN_CAP NONE"
*DIVIDER /
*DELIMITER :
*BUS_DELIMITER []
*T_UNIT 1 NS
*C_UNIT 1 PF
*R_UNIT 1 OHM
*L_UNIT 1 HENRY

*NAME_MAP
*1 io_in[0]
*2 io_in[10]
*3 io_in[11]
*4 io_in[12]
*5 io_in[13]
*6 io_in[14]
*7 io_in[15]
*8 io_in[16]
*9 io_in[17]
*10 io_in[18]
*11 io_in[19]
*12 io_in[1]
*13 io_in[20]
*14 io_in[21]
*15 io_in[22]
*16 io_in[23]
*17 io_in[24]
*18 io_in[25]
*19 io_in[26]
*20 io_in[27]
*21 io_in[28]
*22 io_in[29]
*23 io_in[2]
*24 io_in[30]
*25 io_in[31]
*26 io_in[32]
*27 io_in[33]
*28 io_in[34]
*29 io_in[35]
*30 io_in[36]
*31 io_in[37]
*32 io_in[3]
*33 io_in[4]
*34 io_in[5]
*35 io_in[6]
*36 io_in[7]
*37 io_in[8]
*38 io_in[9]
*39 net90
*40 net100
*41 net101
*42 net102
*43 net103
*44 net104
*45 net105
*46 net106
*47 net107
*48 net108
*49 net109
*50 net91
*51 net110
*52 net111
*53 net112
*54 net113
*55 net114
*56 net115
*57 net116
*58 net117
*59 net118
*60 net119
*61 net92
*62 net120
*63 net121
*64 net122
*65 net123
*66 net124
*67 net125
*68 net126
*69 net127
*70 net93
*71 net94
*72 net95
*73 net96
*74 net97
*75 net98
*76 net99
*77 net128
*78 net138
*79 net139
*80 net140
*81 net141
*82 net142
*83 net143
*84 net144
*85 net145
*86 net146
*87 net147
*88 net129
*89 net148
*90 net149
*91 net150
*92 net151
*93 net152
*94 net153
*95 net154
*96 net155
*97 net156
*98 net157
*99 net130
*100 net158
*101 net159
*102 net160
*103 net161
*104 net162
*105 net163
*106 net164
*107 net165
*108 net131
*109 net132
*110 net133
*111 net134
*112 net135
*113 net136
*114 net137
*115 net166
*116 net167
*117 net168
*118 la_data_in[0]
*119 la_data_in[100]
*120 la_data_in[101]
*121 la_data_in[102]
*122 la_data_in[103]
*123 la_data_in[104]
*124 la_data_in[105]
*125 la_data_in[106]
*126 la_data_in[107]
*127 la_data_in[108]
*128 la_data_in[109]
*129 la_data_in[10]
*130 la_data_in[110]
*131 la_data_in[111]
*132 la_data_in[112]
*133 la_data_in[113]
*134 la_data_in[114]
*135 la_data_in[115]
*136 la_data_in[116]
*137 la_data_in[117]
*138 la_data_in[118]
*139 la_data_in[119]
*140 la_data_in[11]
*141 la_data_in[120]
*142 la_data_in[121]
*143 la_data_in[122]
*144 la_data_in[123]
*145 la_data_in[124]
*146 la_data_in[125]
*147 la_data_in[126]
*148 la_data_in[127]
*149 la_data_in[12]
*150 la_data_in[13]
*151 la_data_in[14]
*152 la_data_in[15]
*153 la_data_in[16]
*154 la_data_in[17]
*155 la_data_in[18]
*156 la_data_in[19]
*157 la_data_in[1]
*158 la_data_in[20]
*159 la_data_in[21]
*160 la_data_in[22]
*161 la_data_in[23]
*162 la_data_in[24]
*163 la_data_in[25]
*164 la_data_in[26]
*165 la_data_in[27]
*166 la_data_in[28]
*167 la_data_in[29]
*168 la_data_in[2]
*169 la_data_in[30]
*170 la_data_in[31]
*171 la_data_in[32]
*172 la_data_in[33]
*173 la_data_in[34]
*174 la_data_in[35]
*175 la_data_in[36]
*176 la_data_in[37]
*177 la_data_in[38]
*178 la_data_in[39]
*179 la_data_in[3]
*180 la_data_in[40]
*181 la_data_in[41]
*182 la_data_in[42]
*183 la_data_in[43]
*184 la_data_in[44]
*185 la_data_in[45]
*186 la_data_in[46]
*187 la_data_in[47]
*188 la_data_in[48]
*189 la_data_in[49]
*190 la_data_in[4]
*191 la_data_in[50]
*192 la_data_in[51]
*193 la_data_in[52]
*194 la_data_in[53]
*195 la_data_in[54]
*196 la_data_in[55]
*197 la_data_in[56]
*198 la_data_in[57]
*199 la_data_in[58]
*200 la_data_in[59]
*201 la_data_in[5]
*202 la_data_in[60]
*203 la_data_in[61]
*204 la_data_in[62]
*205 la_data_in[63]
*206 la_data_in[64]
*207 la_data_in[65]
*208 la_data_in[66]
*209 la_data_in[67]
*210 la_data_in[68]
*211 la_data_in[69]
*212 la_data_in[6]
*213 la_data_in[70]
*214 la_data_in[71]
*215 la_data_in[72]
*216 la_data_in[73]
*217 la_data_in[74]
*218 la_data_in[75]
*219 la_data_in[76]
*220 la_data_in[77]
*221 la_data_in[78]
*222 la_data_in[79]
*223 la_data_in[7]
*224 la_data_in[80]
*225 la_data_in[81]
*226 la_data_in[82]
*227 la_data_in[83]
*228 la_data_in[84]
*229 la_data_in[85]
*230 la_data_in[86]
*231 la_data_in[87]
*232 la_data_in[88]
*233 la_data_in[89]
*234 la_data_in[8]
*235 la_data_in[90]
*236 la_data_in[91]
*237 la_data_in[92]
*238 la_data_in[93]
*239 la_data_in[94]
*240 la_data_in[95]
*241 la_data_in[96]
*242 la_data_in[97]
*243 la_data_in[98]
*244 la_data_in[99]
*245 la_data_in[9]
*246 la_data_out[0]
*247 net251
*248 net252
*249 net253
*250 net254
*251 net255
*252 net256
*253 net257
*254 net258
*255 net259
*256 net260
*257 la_data_out[10]
*258 net261
*259 net262
*260 net263
*261 net264
*262 net265
*263 net266
*264 net267
*265 net268
*266 net269
*267 net270
*268 la_data_out[11]
*269 net271
*270 net272
*271 net273
*272 net274
*273 net275
*274 net276
*275 net277
*276 net278
*277 la_data_out[12]
*278 la_data_out[13]
*279 la_data_out[14]
*280 la_data_out[15]
*281 la_data_out[16]
*282 la_data_out[17]
*283 la_data_out[18]
*284 la_data_out[19]
*285 la_data_out[1]
*286 la_data_out[20]
*287 la_data_out[21]
*288 net173
*289 net174
*290 net175
*291 net176
*292 net177
*293 net178
*294 net179
*295 net180
*296 la_data_out[2]
*297 net181
*298 net182
*299 net183
*300 net184
*301 net185
*302 net186
*303 net187
*304 net188
*305 net189
*306 net190
*307 la_data_out[3]
*308 net191
*309 net192
*310 net193
*311 net194
*312 net195
*313 net196
*314 net197
*315 net198
*316 net199
*317 net200
*318 net169
*319 net201
*320 net202
*321 net203
*322 net204
*323 net205
*324 net206
*325 net207
*326 net208
*327 net209
*328 net210
*329 net170
*330 net211
*331 net212
*332 net213
*333 net214
*334 net215
*335 net216
*336 net217
*337 net218
*338 net219
*339 net220
*340 net171
*341 net221
*342 net222
*343 net223
*344 net224
*345 net225
*346 net226
*347 net227
*348 net228
*349 net229
*350 net230
*351 net172
*352 net231
*353 net232
*354 net233
*355 net234
*356 net235
*357 net236
*358 net237
*359 net238
*360 net239
*361 net240
*362 la_data_out[8]
*363 net241
*364 net242
*365 net243
*366 net244
*367 net245
*368 net246
*369 net247
*370 net248
*371 net249
*372 net250
*373 la_data_out[9]
*374 la_oenb[0]
*375 la_oenb[100]
*376 la_oenb[101]
*377 la_oenb[102]
*378 la_oenb[103]
*379 la_oenb[104]
*380 la_oenb[105]
*381 la_oenb[106]
*382 la_oenb[107]
*383 la_oenb[108]
*384 la_oenb[109]
*385 la_oenb[10]
*386 la_oenb[110]
*387 la_oenb[111]
*388 la_oenb[112]
*389 la_oenb[113]
*390 la_oenb[114]
*391 la_oenb[115]
*392 la_oenb[116]
*393 la_oenb[117]
*394 la_oenb[118]
*395 la_oenb[119]
*396 la_oenb[11]
*397 la_oenb[120]
*398 la_oenb[121]
*399 la_oenb[122]
*400 la_oenb[123]
*401 la_oenb[124]
*402 la_oenb[125]
*403 la_oenb[126]
*404 la_oenb[127]
*405 la_oenb[12]
*406 la_oenb[13]
*407 la_oenb[14]
*408 la_oenb[15]
*409 la_oenb[16]
*410 la_oenb[17]
*411 la_oenb[18]
*412 la_oenb[19]
*413 la_oenb[1]
*414 la_oenb[20]
*415 la_oenb[21]
*416 la_oenb[22]
*417 la_oenb[23]
*418 la_oenb[24]
*419 la_oenb[25]
*420 la_oenb[26]
*421 la_oenb[27]
*422 la_oenb[28]
*423 la_oenb[29]
*424 la_oenb[2]
*425 la_oenb[30]
*426 la_oenb[31]
*427 la_oenb[32]
*428 la_oenb[33]
*429 la_oenb[34]
*430 la_oenb[35]
*431 la_oenb[36]
*432 la_oenb[37]
*433 la_oenb[38]
*434 la_oenb[39]
*435 la_oenb[3]
*436 la_oenb[40]
*437 la_oenb[41]
*438 la_oenb[42]
*439 la_oenb[43]
*440 la_oenb[44]
*441 la_oenb[45]
*442 la_oenb[46]
*443 la_oenb[47]
*444 la_oenb[48]
*445 la_oenb[49]
*446 la_oenb[4]
*447 la_oenb[50]
*448 la_oenb[51]
*449 la_oenb[52]
*450 la_oenb[53]
*451 la_oenb[54]
*452 la_oenb[55]
*453 la_oenb[56]
*454 la_oenb[57]
*455 la_oenb[58]
*456 la_oenb[59]
*457 la_oenb[5]
*458 la_oenb[60]
*459 la_oenb[61]
*460 la_oenb[62]
*461 la_oenb[63]
*462 la_oenb[64]
*463 la_oenb[65]
*464 la_oenb[66]
*465 la_oenb[67]
*466 la_oenb[68]
*467 la_oenb[69]
*468 la_oenb[6]
*469 la_oenb[70]
*470 la_oenb[71]
*471 la_oenb[72]
*472 la_oenb[73]
*473 la_oenb[74]
*474 la_oenb[75]
*475 la_oenb[76]
*476 la_oenb[77]
*477 la_oenb[78]
*478 la_oenb[79]
*479 la_oenb[7]
*480 la_oenb[80]
*481 la_oenb[81]
*482 la_oenb[82]
*483 la_oenb[83]
*484 la_oenb[84]
*485 la_oenb[85]
*486 la_oenb[86]
*487 la_oenb[87]
*488 la_oenb[88]
*489 la_oenb[89]
*490 la_oenb[8]
*491 la_oenb[90]
*492 la_oenb[91]
*493 la_oenb[92]
*494 la_oenb[93]
*495 la_oenb[94]
*496 la_oenb[95]
*497 la_oenb[96]
*498 la_oenb[97]
*499 la_oenb[98]
*500 la_oenb[99]
*501 la_oenb[9]
*504 wb_clk_i
*505 wb_rst_i
*506 wbs_ack_o
*507 wbs_adr_i[0]
*508 wbs_adr_i[10]
*509 wbs_adr_i[11]
*510 wbs_adr_i[12]
*511 wbs_adr_i[13]
*512 wbs_adr_i[14]
*513 wbs_adr_i[15]
*514 wbs_adr_i[16]
*515 wbs_adr_i[17]
*516 wbs_adr_i[18]
*517 wbs_adr_i[19]
*518 wbs_adr_i[1]
*519 wbs_adr_i[20]
*520 wbs_adr_i[21]
*521 wbs_adr_i[22]
*522 wbs_adr_i[23]
*523 wbs_adr_i[24]
*524 wbs_adr_i[25]
*525 wbs_adr_i[26]
*526 wbs_adr_i[27]
*527 wbs_adr_i[28]
*528 wbs_adr_i[29]
*529 wbs_adr_i[2]
*530 wbs_adr_i[30]
*531 wbs_adr_i[31]
*532 wbs_adr_i[3]
*533 wbs_adr_i[4]
*534 wbs_adr_i[5]
*535 wbs_adr_i[6]
*536 wbs_adr_i[7]
*537 wbs_adr_i[8]
*538 wbs_adr_i[9]
*539 wbs_cyc_i
*540 wbs_dat_i[0]
*541 wbs_dat_i[10]
*542 wbs_dat_i[11]
*543 wbs_dat_i[12]
*544 wbs_dat_i[13]
*545 wbs_dat_i[14]
*546 wbs_dat_i[15]
*547 wbs_dat_i[16]
*548 wbs_dat_i[17]
*549 wbs_dat_i[18]
*550 wbs_dat_i[19]
*551 wbs_dat_i[1]
*552 wbs_dat_i[20]
*553 wbs_dat_i[21]
*554 wbs_dat_i[22]
*555 wbs_dat_i[23]
*556 wbs_dat_i[24]
*557 wbs_dat_i[25]
*558 wbs_dat_i[26]
*559 wbs_dat_i[27]
*560 wbs_dat_i[28]
*561 wbs_dat_i[29]
*562 wbs_dat_i[2]
*563 wbs_dat_i[30]
*564 wbs_dat_i[31]
*565 wbs_dat_i[3]
*566 wbs_dat_i[4]
*567 wbs_dat_i[5]
*568 wbs_dat_i[6]
*569 wbs_dat_i[7]
*570 wbs_dat_i[8]
*571 wbs_dat_i[9]
*572 wbs_dat_o[0]
*573 wbs_dat_o[10]
*574 wbs_dat_o[11]
*575 wbs_dat_o[12]
*576 wbs_dat_o[13]
*577 wbs_dat_o[14]
*578 net279
*579 net280
*580 net281
*581 net282
*582 net283
*583 wbs_dat_o[1]
*584 net284
*585 net285
*586 net286
*587 net287
*588 net288
*589 net289
*590 net290
*591 net291
*592 net292
*593 net293
*594 wbs_dat_o[2]
*595 net294
*596 net295
*597 wbs_dat_o[3]
*598 wbs_dat_o[4]
*599 wbs_dat_o[5]
*600 wbs_dat_o[6]
*601 wbs_dat_o[7]
*602 wbs_dat_o[8]
*603 wbs_dat_o[9]
*604 wbs_sel_i[0]
*605 wbs_sel_i[1]
*606 wbs_sel_i[2]
*607 wbs_sel_i[3]
*608 wbs_stb_i
*609 wbs_we_i
*610 _0000_
*611 _0001_
*612 _0002_
*613 _0003_
*614 _0004_
*615 _0005_
*616 _0006_
*617 _0007_
*618 _0008_
*619 _0009_
*620 _0010_
*621 _0011_
*622 _0012_
*623 _0013_
*624 _0014_
*625 _0015_
*626 _0016_
*627 _0017_
*628 _0018_
*629 _0019_
*630 _0020_
*631 _0021_
*632 _0022_
*633 _0023_
*634 _0024_
*635 _0025_
*636 _0026_
*637 _0027_
*638 _0028_
*639 _0029_
*640 _0030_
*641 _0031_
*642 _0032_
*643 _0033_
*644 _0034_
*645 _0035_
*646 _0036_
*647 _0037_
*648 _0038_
*649 _0039_
*650 _0040_
*651 _0041_
*652 _0042_
*653 _0043_
*654 _0044_
*655 _0045_
*656 _0046_
*657 _0047_
*658 _0048_
*659 _0049_
*660 _0050_
*661 _0051_
*662 _0052_
*663 _0053_
*664 _0054_
*665 _0055_
*666 _0056_
*667 _0057_
*668 _0058_
*669 _0059_
*670 _0060_
*671 _0061_
*672 _0062_
*673 _0063_
*674 _0064_
*675 _0065_
*676 _0066_
*677 _0067_
*678 _0068_
*679 _0069_
*680 _0070_
*681 _0071_
*682 _0072_
*683 _0073_
*684 _0074_
*685 _0075_
*686 _0076_
*687 _0077_
*688 _0078_
*689 _0079_
*690 _0080_
*691 _0081_
*692 _0082_
*693 _0083_
*694 _0084_
*695 _0085_
*696 _0086_
*697 _0087_
*698 _0088_
*699 _0089_
*700 _0090_
*701 _0091_
*702 _0092_
*703 _0093_
*704 _0094_
*705 _0095_
*706 _0096_
*707 _0097_
*708 _0098_
*709 _0099_
*710 _0100_
*711 _0101_
*712 _0102_
*713 _0103_
*714 _0104_
*715 _0105_
*716 _0106_
*717 _0107_
*718 _0108_
*719 _0109_
*720 _0110_
*721 _0111_
*722 _0112_
*723 _0113_
*724 _0114_
*725 _0115_
*726 _0116_
*727 _0117_
*728 _0118_
*729 _0119_
*730 _0120_
*731 _0121_
*732 _0122_
*733 _0123_
*734 _0124_
*735 _0125_
*736 _0126_
*737 _0127_
*738 _0128_
*739 _0129_
*740 _0130_
*741 _0131_
*742 _0132_
*743 _0133_
*744 _0134_
*745 _0135_
*746 _0136_
*747 _0137_
*748 _0138_
*749 _0139_
*750 _0140_
*751 _0141_
*752 _0142_
*753 _0143_
*754 _0144_
*755 _0145_
*756 _0146_
*757 _0147_
*758 _0148_
*759 _0149_
*760 _0150_
*761 _0151_
*762 _0152_
*763 _0153_
*764 _0154_
*765 _0155_
*766 _0156_
*767 _0157_
*768 _0158_
*769 _0159_
*770 _0160_
*771 _0161_
*772 _0162_
*773 _0163_
*774 _0164_
*775 _0165_
*776 _0166_
*777 _0167_
*778 _0168_
*779 _0169_
*780 _0170_
*781 _0171_
*782 _0172_
*783 _0173_
*784 _0174_
*785 _0175_
*786 _0176_
*787 _0177_
*788 _0178_
*789 _0179_
*790 _0180_
*791 _0181_
*792 _0182_
*793 _0183_
*794 _0184_
*795 _0185_
*796 _0186_
*797 _0187_
*798 _0188_
*799 _0189_
*800 _0190_
*801 _0191_
*802 _0192_
*803 _0193_
*804 _0194_
*805 _0195_
*806 _0196_
*807 _0197_
*808 _0198_
*809 _0199_
*810 _0200_
*811 _0201_
*812 _0202_
*813 _0203_
*814 _0204_
*815 _0205_
*816 _0206_
*817 _0207_
*818 _0208_
*819 _0209_
*820 _0210_
*821 _0211_
*822 _0212_
*823 _0213_
*824 _0214_
*825 _0215_
*826 _0216_
*827 _0217_
*828 _0218_
*829 _0219_
*830 _0220_
*831 _0221_
*832 _0222_
*833 _0223_
*834 _0224_
*835 _0225_
*836 _0226_
*837 _0227_
*838 _0228_
*839 _0229_
*840 _0230_
*841 _0231_
*842 _0232_
*843 _0233_
*844 _0234_
*845 _0235_
*846 _0236_
*847 _0237_
*848 _0238_
*849 _0239_
*850 _0240_
*851 _0241_
*852 _0242_
*853 _0243_
*854 _0244_
*855 _0245_
*856 _0246_
*857 _0247_
*858 _0248_
*859 _0249_
*860 _0250_
*861 _0251_
*862 _0252_
*863 _0253_
*864 _0254_
*865 _0255_
*866 _0256_
*867 _0257_
*868 _0258_
*869 _0259_
*870 _0260_
*871 _0261_
*872 _0262_
*873 _0263_
*874 _0264_
*875 _0265_
*876 _0266_
*877 _0267_
*878 _0268_
*879 _0269_
*880 _0270_
*881 _0271_
*882 _0272_
*883 _0273_
*884 _0274_
*885 _0275_
*886 _0276_
*887 _0277_
*888 _0278_
*889 _0279_
*890 _0280_
*891 _0281_
*892 _0282_
*893 _0283_
*894 _0284_
*895 _0285_
*896 _0286_
*897 _0287_
*898 _0288_
*899 _0289_
*900 _0290_
*901 _0291_
*902 _0292_
*903 _0293_
*904 _0294_
*905 _0295_
*906 _0296_
*907 _0297_
*908 _0298_
*909 _0299_
*910 _0300_
*911 _0301_
*912 _0302_
*913 _0303_
*914 _0304_
*915 _0305_
*916 _0306_
*917 _0307_
*918 _0308_
*919 _0309_
*920 _0310_
*921 _0311_
*922 _0312_
*923 _0313_
*924 _0314_
*925 _0315_
*926 _0316_
*927 _0317_
*928 _0318_
*929 _0319_
*930 _0320_
*931 _0321_
*932 _0322_
*933 _0323_
*934 _0324_
*935 _0325_
*936 _0326_
*937 _0327_
*938 _0328_
*939 _0329_
*940 _0330_
*941 _0331_
*942 _0332_
*943 _0333_
*944 _0334_
*945 _0335_
*946 _0336_
*947 _0337_
*948 _0338_
*949 _0339_
*950 _0340_
*951 _0341_
*952 _0342_
*953 _0343_
*954 _0344_
*955 _0345_
*956 _0346_
*957 _0347_
*958 _0348_
*959 _0349_
*960 _0350_
*961 _0351_
*962 _0352_
*963 _0353_
*964 _0354_
*965 _0355_
*966 _0356_
*967 _0357_
*968 _0358_
*969 _0359_
*970 _0360_
*971 _0361_
*972 _0362_
*973 _0363_
*974 _0364_
*975 _0365_
*976 _0366_
*977 _0367_
*978 _0368_
*979 _0369_
*980 _0370_
*981 _0371_
*982 _0372_
*983 _0373_
*984 _0374_
*985 _0375_
*986 _0376_
*987 _0377_
*988 _0378_
*989 _0379_
*990 _0380_
*991 _0381_
*992 _0382_
*993 _0383_
*994 _0384_
*995 _0385_
*996 _0386_
*997 _0387_
*998 _0388_
*999 _0389_
*1000 _0390_
*1001 _0391_
*1002 _0392_
*1003 _0393_
*1004 _0394_
*1005 _0395_
*1006 _0396_
*1007 _0397_
*1008 clknet_0_wb_clk_i
*1009 clknet_2_0__leaf_wb_clk_i
*1010 clknet_2_1__leaf_wb_clk_i
*1011 clknet_2_2__leaf_wb_clk_i
*1012 clknet_2_3__leaf_wb_clk_i
*1013 net1
*1014 net10
*1015 net11
*1016 net12
*1017 net13
*1018 net14
*1019 net15
*1020 net16
*1021 net17
*1022 net18
*1023 net19
*1024 net2
*1025 net20
*1026 net21
*1027 net22
*1028 net23
*1029 net24
*1030 net25
*1031 net26
*1032 net27
*1033 net28
*1034 net29
*1035 net3
*1036 net30
*1037 net31
*1038 net32
*1039 net33
*1040 net34
*1041 net35
*1042 net36
*1043 net37
*1044 net38
*1045 net39
*1046 net4
*1047 net40
*1048 net41
*1049 net42
*1050 net43
*1051 net44
*1052 net45
*1053 net46
*1054 net47
*1055 net48
*1056 net49
*1057 net5
*1058 net50
*1059 net51
*1060 net52
*1061 net53
*1062 net54
*1063 net55
*1064 net56
*1065 net57
*1066 net58
*1067 net59
*1068 net6
*1069 net60
*1070 net61
*1071 net62
*1072 net63
*1073 net64
*1074 net65
*1075 net66
*1076 net67
*1077 net68
*1078 net69
*1079 net7
*1080 net70
*1081 net71
*1082 net72
*1083 net73
*1084 net74
*1085 net75
*1086 net76
*1087 net77
*1088 net78
*1089 net79
*1090 net8
*1091 net80
*1092 net81
*1093 net82
*1094 net83
*1095 net84
*1096 net85
*1097 net86
*1098 net87
*1099 net88
*1100 net89
*1101 net9
*1102 pixel_fsm0\.adj_max_clk\[0\]
*1103 pixel_fsm0\.adj_max_clk\[1\]
*1104 pixel_fsm0\.adj_max_clk\[2\]
*1105 pixel_fsm0\.adj_max_clk\[3\]
*1106 pixel_fsm0\.adj_max_clk\[4\]
*1107 pixel_fsm0\.adj_max_clk\[5\]
*1108 pixel_fsm0\.adj_max_clk\[6\]
*1109 pixel_fsm0\.adj_max_clk\[7\]
*1110 pixel_fsm0\.adj_max_clk\[8\]
*1111 pixel_fsm0\.adj_max_clk\[9\]
*1112 pixel_fsm0\.data_out\[10\]
*1113 pixel_fsm0\.data_out\[11\]
*1114 pixel_fsm0\.data_out\[12\]
*1115 pixel_fsm0\.data_out\[13\]
*1116 pixel_fsm0\.data_out\[14\]
*1117 pixel_fsm0\.data_out\[2\]
*1118 pixel_fsm0\.data_out\[3\]
*1119 pixel_fsm0\.data_out\[4\]
*1120 pixel_fsm0\.data_out\[5\]
*1121 pixel_fsm0\.data_out\[6\]
*1122 pixel_fsm0\.data_out\[7\]
*1123 pixel_fsm0\.data_out\[8\]
*1124 pixel_fsm0\.data_out\[9\]
*1125 pixel_fsm0\.inst1\.next_state\[0\]
*1126 pixel_fsm0\.inst1\.next_state\[1\]
*1127 pixel_fsm0\.inst1\.next_state\[2\]
*1128 pixel_fsm0\.inst1\.pxl_start_i
*1129 pixel_fsm0\.inst1\.state\[0\]
*1130 pixel_fsm0\.inst1\.state\[1\]
*1131 pixel_fsm0\.inst1\.state\[2\]
*1132 pixel_fsm0\.inst2\.loc_max_clk\[0\]
*1133 pixel_fsm0\.inst2\.loc_max_clk\[1\]
*1134 pixel_fsm0\.inst2\.loc_max_clk\[2\]
*1135 pixel_fsm0\.inst2\.loc_max_clk\[3\]
*1136 pixel_fsm0\.inst2\.loc_max_clk\[4\]
*1137 pixel_fsm0\.inst2\.loc_max_clk\[5\]
*1138 pixel_fsm0\.inst2\.loc_max_clk\[6\]
*1139 pixel_fsm0\.inst2\.loc_max_clk\[7\]
*1140 pixel_fsm0\.inst2\.loc_max_clk\[8\]
*1141 pixel_fsm0\.inst2\.loc_max_clk\[9\]
*1142 pixel_fsm0\.inst4\.pixel_count_max
*1143 ANTENNA__0398__A
*1144 ANTENNA__0400__B
*1145 ANTENNA__0401__A
*1146 ANTENNA__0402__A
*1147 ANTENNA__0404__A
*1148 ANTENNA__0404__B
*1149 ANTENNA__0407__A1
*1150 ANTENNA__0408__A2
*1151 ANTENNA__0408__C1
*1152 ANTENNA__0409__A1
*1153 ANTENNA__0409__B1
*1154 ANTENNA__0410__A1
*1155 ANTENNA__0412__A1
*1156 ANTENNA__0412__A2
*1157 ANTENNA__0413__A
*1158 ANTENNA__0414__A1
*1159 ANTENNA__0414__A2
*1160 ANTENNA__0414__B1
*1161 ANTENNA__0415__A1
*1162 ANTENNA__0416__A
*1163 ANTENNA__0416__C_N
*1164 ANTENNA__0417__A
*1165 ANTENNA__0417__B
*1166 ANTENNA__0418__A
*1167 ANTENNA__0419__A_N
*1168 ANTENNA__0419__B
*1169 ANTENNA__0420__A
*1170 ANTENNA__0421__B
*1171 ANTENNA__0422__A
*1172 ANTENNA__0422__B
*1173 ANTENNA__0427__A
*1174 ANTENNA__0428__B
*1175 ANTENNA__0430__A_N
*1176 ANTENNA__0431__A
*1177 ANTENNA__0432__A
*1178 ANTENNA__0433__B
*1179 ANTENNA__0435__A
*1180 ANTENNA__0436__A2
*1181 ANTENNA__0438__A
*1182 ANTENNA__0443__A
*1183 ANTENNA__0443__B
*1184 ANTENNA__0446__A
*1185 ANTENNA__0448__A
*1186 ANTENNA__0449__A
*1187 ANTENNA__0459__A
*1188 ANTENNA__0470__C
*1189 ANTENNA__0475__A
*1190 ANTENNA__0479__A2
*1191 ANTENNA__0482__A2
*1192 ANTENNA__0483__C
*1193 ANTENNA__0485__A
*1194 ANTENNA__0486__A
*1195 ANTENNA__0486__B
*1196 ANTENNA__0488__A
*1197 ANTENNA__0490__A
*1198 ANTENNA__0490__B
*1199 ANTENNA__0493__A
*1200 ANTENNA__0495__A
*1201 ANTENNA__0497__A
*1202 ANTENNA__0500__A
*1203 ANTENNA__0502__A
*1204 ANTENNA__0503__A
*1205 ANTENNA__0505__A
*1206 ANTENNA__0508__A
*1207 ANTENNA__0510__A
*1208 ANTENNA__0512__A
*1209 ANTENNA__0514__A
*1210 ANTENNA__0516__A
*1211 ANTENNA__0516__B
*1212 ANTENNA__0519__A
*1213 ANTENNA__0524__A
*1214 ANTENNA__0525__A
*1215 ANTENNA__0529__A
*1216 ANTENNA__0530__A
*1217 ANTENNA__0532__A
*1218 ANTENNA__0532__B
*1219 ANTENNA__0534__A
*1220 ANTENNA__0536__A
*1221 ANTENNA__0538__A
*1222 ANTENNA__0540__A
*1223 ANTENNA__0541__A
*1224 ANTENNA__0543__A
*1225 ANTENNA__0545__A
*1226 ANTENNA__0547__A
*1227 ANTENNA__0547__B
*1228 ANTENNA__0549__A
*1229 ANTENNA__0551__A
*1230 ANTENNA__0557__A
*1231 ANTENNA__0558__A
*1232 ANTENNA__0560__A
*1233 ANTENNA__0560__B
*1234 ANTENNA__0562__A
*1235 ANTENNA__0564__A
*1236 ANTENNA__0566__A
*1237 ANTENNA__0568__A
*1238 ANTENNA__0569__A
*1239 ANTENNA__0571__A
*1240 ANTENNA__0573__A
*1241 ANTENNA__0575__A
*1242 ANTENNA__0575__B
*1243 ANTENNA__0577__A
*1244 ANTENNA__0579__A
*1245 ANTENNA__0585__A
*1246 ANTENNA__0596__A
*1247 ANTENNA__0597__A
*1248 ANTENNA__0599__A
*1249 ANTENNA__0601__A
*1250 ANTENNA__0603__A
*1251 ANTENNA__0603__B
*1252 ANTENNA__0605__A
*1253 ANTENNA__0609__A
*1254 ANTENNA__0613__A
*1255 ANTENNA__0614__A
*1256 ANTENNA__0616__A
*1257 ANTENNA__0618__A
*1258 ANTENNA__0620__A
*1259 ANTENNA__0622__A
*1260 ANTENNA__0625__A
*1261 ANTENNA__0627__A
*1262 ANTENNA__0629__A
*1263 ANTENNA__0629__B
*1264 ANTENNA__0631__A
*1265 ANTENNA__0632__A
*1266 ANTENNA__0634__A
*1267 ANTENNA__0636__A
*1268 ANTENNA__0638__A
*1269 ANTENNA__0640__A
*1270 ANTENNA__0643__A
*1271 ANTENNA__0645__A
*1272 ANTENNA__0647__A
*1273 ANTENNA__0649__A
*1274 ANTENNA__0653__B
*1275 ANTENNA__0655__B
*1276 ANTENNA__0656__A
*1277 ANTENNA__0657__A
*1278 ANTENNA__0659__A
*1279 ANTENNA__0661__A
*1280 ANTENNA__0664__A
*1281 ANTENNA__0666__A
*1282 ANTENNA__0668__A
*1283 ANTENNA__0668__B
*1284 ANTENNA__0671__A_N
*1285 ANTENNA__0672__B
*1286 ANTENNA__0678__A
*1287 ANTENNA__0679__A
*1288 ANTENNA__0681__A1
*1289 ANTENNA__0681__C1
*1290 ANTENNA__0686__B
*1291 ANTENNA__0687__A
*1292 ANTENNA__0688__A
*1293 ANTENNA__0690__A
*1294 ANTENNA__0693__A1
*1295 ANTENNA__0693__C1
*1296 ANTENNA__0695__A1
*1297 ANTENNA__0695__C1
*1298 ANTENNA__0697__A1
*1299 ANTENNA__0697__C1
*1300 ANTENNA__0700__A
*1301 ANTENNA__0701__A1
*1302 ANTENNA__0701__C1
*1303 ANTENNA__0703__A1
*1304 ANTENNA__0703__C1
*1305 ANTENNA__0705__A
*1306 ANTENNA__0706__A
*1307 ANTENNA__0708__A1
*1308 ANTENNA__0708__C1
*1309 ANTENNA__0710__A1
*1310 ANTENNA__0710__C1
*1311 ANTENNA__0712__A1
*1312 ANTENNA__0712__C1
*1313 ANTENNA__0714__A
*1314 ANTENNA__0715__A1
*1315 ANTENNA__0715__C1
*1316 ANTENNA__0717__A1
*1317 ANTENNA__0717__C1
*1318 ANTENNA__0720__B
*1319 ANTENNA__0723__A
*1320 ANTENNA__0725__A1
*1321 ANTENNA__0725__C1
*1322 ANTENNA__0727__A1
*1323 ANTENNA__0727__C1
*1324 ANTENNA__0729__A1
*1325 ANTENNA__0729__C1
*1326 ANTENNA__0731__A
*1327 ANTENNA__0732__A1
*1328 ANTENNA__0732__C1
*1329 ANTENNA__0734__A1
*1330 ANTENNA__0734__C1
*1331 ANTENNA__0737__A
*1332 ANTENNA__0739__A1
*1333 ANTENNA__0739__C1
*1334 ANTENNA__0741__A1
*1335 ANTENNA__0741__C1
*1336 ANTENNA__0743__A1
*1337 ANTENNA__0743__C1
*1338 ANTENNA__0746__A1
*1339 ANTENNA__0746__C1
*1340 ANTENNA__0748__A1
*1341 ANTENNA__0748__C1
*1342 ANTENNA__0749__A
*1343 ANTENNA__0753__A
*1344 ANTENNA__0756__A
*1345 ANTENNA__0756__B
*1346 ANTENNA__0758__B
*1347 ANTENNA__0761__C1
*1348 ANTENNA__0762__A1
*1349 ANTENNA__0763__C1
*1350 ANTENNA__0766__C1
*1351 ANTENNA__0769__A1
*1352 ANTENNA__0771__A
*1353 ANTENNA__0773__A
*1354 ANTENNA__0774__A1
*1355 ANTENNA__0775__A
*1356 ANTENNA__0776__A1
*1357 ANTENNA__0785__A1
*1358 ANTENNA__0789__A1
*1359 ANTENNA__0793__C1
*1360 ANTENNA__0795__C1
*1361 ANTENNA__0798__A
*1362 ANTENNA__0799__CLK
*1363 ANTENNA__0800__CLK
*1364 ANTENNA__0801__CLK
*1365 ANTENNA__0802__CLK
*1366 ANTENNA__0803__CLK
*1367 ANTENNA__0804__CLK
*1368 ANTENNA__0805__CLK
*1369 ANTENNA__0806__CLK
*1370 ANTENNA__0807__CLK
*1371 ANTENNA__0808__CLK
*1372 ANTENNA__0809__CLK
*1373 ANTENNA__0810__CLK
*1374 ANTENNA__0811__CLK
*1375 ANTENNA__0812__CLK
*1376 ANTENNA__0813__CLK
*1377 ANTENNA__0814__CLK
*1378 ANTENNA__0815__CLK
*1379 ANTENNA__0816__CLK
*1380 ANTENNA__0817__CLK
*1381 ANTENNA__0818__CLK
*1382 ANTENNA__0819__CLK
*1383 ANTENNA__0820__CLK
*1384 ANTENNA__0820__SET_B
*1385 ANTENNA__0821__CLK
*1386 ANTENNA__0822__CLK
*1387 ANTENNA__0823__CLK
*1388 ANTENNA__0824__CLK
*1389 ANTENNA__0825__CLK
*1390 ANTENNA__0826__CLK
*1391 ANTENNA__0827__CLK
*1392 ANTENNA__0828__CLK
*1393 ANTENNA__0829__CLK
*1394 ANTENNA__0830__CLK
*1395 ANTENNA__0831__CLK
*1396 ANTENNA__0832__CLK
*1397 ANTENNA__0833__CLK
*1398 ANTENNA__0834__CLK
*1399 ANTENNA__0835__CLK
*1400 ANTENNA__0836__CLK
*1401 ANTENNA__0837__CLK
*1402 ANTENNA__0838__CLK
*1403 ANTENNA__0839__CLK
*1404 ANTENNA__0885__GATE_N
*1405 ANTENNA__0893__GATE_N
*1406 ANTENNA__0899__GATE_N
*1407 ANTENNA__0918__CLK
*1408 ANTENNA__0919__CLK
*1409 ANTENNA__0920__CLK
*1410 ANTENNA__0921__CLK
*1411 ANTENNA__0923__GATE_N
*1412 ANTENNA__0926__GATE_N
*1413 ANTENNA__0927__GATE_N
*1414 ANTENNA__0929__D
*1415 ANTENNA__0929__GATE_N
*1416 ANTENNA__1138__A
*1417 ANTENNA__1139__A
*1418 ANTENNA__1140__A
*1419 ANTENNA__1141__A
*1420 ANTENNA_clkbuf_0_wb_clk_i_A
*1421 ANTENNA_input10_A
*1422 ANTENNA_input11_A
*1423 ANTENNA_input12_A
*1424 ANTENNA_input13_A
*1425 ANTENNA_input14_A
*1426 ANTENNA_input15_A
*1427 ANTENNA_input16_A
*1428 ANTENNA_input17_A
*1429 ANTENNA_input18_A
*1430 ANTENNA_input19_A
*1431 ANTENNA_input1_A
*1432 ANTENNA_input20_A
*1433 ANTENNA_input21_A
*1434 ANTENNA_input22_A
*1435 ANTENNA_input23_A
*1436 ANTENNA_input24_A
*1437 ANTENNA_input25_A
*1438 ANTENNA_input26_A
*1439 ANTENNA_input27_A
*1440 ANTENNA_input2_A
*1441 ANTENNA_input3_A
*1442 ANTENNA_input4_A
*1443 ANTENNA_input5_A
*1444 ANTENNA_input6_A
*1445 ANTENNA_input7_A
*1446 ANTENNA_input8_A
*1447 ANTENNA_input9_A
*1448 ANTENNA_output28_A
*1449 ANTENNA_output31_A
*1450 ANTENNA_output32_A
*1451 ANTENNA_output33_A
*1452 ANTENNA_output34_A
*1453 ANTENNA_output35_A
*1454 ANTENNA_output36_A
*1455 ANTENNA_output38_A
*1456 ANTENNA_output39_A
*1457 ANTENNA_output40_A
*1458 ANTENNA_output41_A
*1459 ANTENNA_output42_A
*1460 ANTENNA_output43_A
*1461 ANTENNA_output56_A
*1462 ANTENNA_output57_A
*1463 ANTENNA_output58_A
*1464 ANTENNA_repeater72_A
*1465 ANTENNA_repeater80_A
*1466 FILLER_0_108
*1467 FILLER_0_123
*1468 FILLER_0_13
*1469 FILLER_0_131
*1470 FILLER_0_136
*1471 FILLER_0_141
*1472 FILLER_0_148
*1473 FILLER_0_156
*1474 FILLER_0_164
*1475 FILLER_0_169
*1476 FILLER_0_176
*1477 FILLER_0_184
*1478 FILLER_0_192
*1479 FILLER_0_197
*1480 FILLER_0_212
*1481 FILLER_0_22
*1482 FILLER_0_220
*1483 FILLER_0_230
*1484 FILLER_0_239
*1485 FILLER_0_247
*1486 FILLER_0_251
*1487 FILLER_0_257
*1488 FILLER_0_265
*1489 FILLER_0_269
*1490 FILLER_0_276
*1491 FILLER_0_283
*1492 FILLER_0_290
*1493 FILLER_0_297
*1494 FILLER_0_3
*1495 FILLER_0_304
*1496 FILLER_0_309
*1497 FILLER_0_315
*1498 FILLER_0_32
*1499 FILLER_0_322
*1500 FILLER_0_332
*1501 FILLER_0_339
*1502 FILLER_0_353
*1503 FILLER_0_360
*1504 FILLER_0_368
*1505 FILLER_0_375
*1506 FILLER_0_382
*1507 FILLER_0_388
*1508 FILLER_0_396
*1509 FILLER_0_403
*1510 FILLER_0_410
*1511 FILLER_0_416
*1512 FILLER_0_424
*1513 FILLER_0_431
*1514 FILLER_0_438
*1515 FILLER_0_444
*1516 FILLER_0_452
*1517 FILLER_0_459
*1518 FILLER_0_466
*1519 FILLER_0_472
*1520 FILLER_0_480
*1521 FILLER_0_487
*1522 FILLER_0_494
*1523 FILLER_0_500
*1524 FILLER_0_508
*1525 FILLER_0_515
*1526 FILLER_0_52
*1527 FILLER_0_522
*1528 FILLER_0_528
*1529 FILLER_0_536
*1530 FILLER_0_543
*1531 FILLER_0_550
*1532 FILLER_0_556
*1533 FILLER_0_564
*1534 FILLER_0_57
*1535 FILLER_0_571
*1536 FILLER_0_578
*1537 FILLER_0_584
*1538 FILLER_0_592
*1539 FILLER_0_599
*1540 FILLER_0_606
*1541 FILLER_0_612
*1542 FILLER_0_619
*1543 FILLER_0_66
*1544 FILLER_0_7
*1545 FILLER_0_80
*1546 FILLER_0_92
*1547 FILLER_10_105
*1548 FILLER_10_109
*1549 FILLER_10_11
*1550 FILLER_10_113
*1551 FILLER_10_129
*1552 FILLER_10_136
*1553 FILLER_10_141
*1554 FILLER_10_145
*1555 FILLER_10_161
*1556 FILLER_10_167
*1557 FILLER_10_173
*1558 FILLER_10_181
*1559 FILLER_10_185
*1560 FILLER_10_192
*1561 FILLER_10_20
*1562 FILLER_10_200
*1563 FILLER_10_204
*1564 FILLER_10_215
*1565 FILLER_10_224
*1566 FILLER_10_230
*1567 FILLER_10_238
*1568 FILLER_10_244
*1569 FILLER_10_248
*1570 FILLER_10_258
*1571 FILLER_10_264
*1572 FILLER_10_270
*1573 FILLER_10_276
*1574 FILLER_10_283
*1575 FILLER_10_292
*1576 FILLER_10_3
*1577 FILLER_10_303
*1578 FILLER_10_307
*1579 FILLER_10_309
*1580 FILLER_10_31
*1581 FILLER_10_317
*1582 FILLER_10_323
*1583 FILLER_10_330
*1584 FILLER_10_339
*1585 FILLER_10_346
*1586 FILLER_10_353
*1587 FILLER_10_360
*1588 FILLER_10_370
*1589 FILLER_10_376
*1590 FILLER_10_38
*1591 FILLER_10_387
*1592 FILLER_10_395
*1593 FILLER_10_406
*1594 FILLER_10_415
*1595 FILLER_10_419
*1596 FILLER_10_421
*1597 FILLER_10_429
*1598 FILLER_10_437
*1599 FILLER_10_45
*1600 FILLER_10_450
*1601 FILLER_10_459
*1602 FILLER_10_467
*1603 FILLER_10_471
*1604 FILLER_10_475
*1605 FILLER_10_477
*1606 FILLER_10_492
*1607 FILLER_10_499
*1608 FILLER_10_510
*1609 FILLER_10_519
*1610 FILLER_10_528
*1611 FILLER_10_545
*1612 FILLER_10_551
*1613 FILLER_10_557
*1614 FILLER_10_563
*1615 FILLER_10_569
*1616 FILLER_10_573
*1617 FILLER_10_577
*1618 FILLER_10_583
*1619 FILLER_10_587
*1620 FILLER_10_591
*1621 FILLER_10_603
*1622 FILLER_10_61
*1623 FILLER_10_615
*1624 FILLER_10_623
*1625 FILLER_10_69
*1626 FILLER_10_7
*1627 FILLER_10_73
*1628 FILLER_10_80
*1629 FILLER_10_85
*1630 FILLER_10_89
*1631 FILLER_11_101
*1632 FILLER_11_108
*1633 FILLER_11_118
*1634 FILLER_11_122
*1635 FILLER_11_128
*1636 FILLER_11_134
*1637 FILLER_11_141
*1638 FILLER_11_148
*1639 FILLER_11_155
*1640 FILLER_11_164
*1641 FILLER_11_169
*1642 FILLER_11_17
*1643 FILLER_11_176
*1644 FILLER_11_185
*1645 FILLER_11_189
*1646 FILLER_11_193
*1647 FILLER_11_202
*1648 FILLER_11_218
*1649 FILLER_11_225
*1650 FILLER_11_23
*1651 FILLER_11_232
*1652 FILLER_11_241
*1653 FILLER_11_248
*1654 FILLER_11_255
*1655 FILLER_11_271
*1656 FILLER_11_279
*1657 FILLER_11_281
*1658 FILLER_11_287
*1659 FILLER_11_29
*1660 FILLER_11_3
*1661 FILLER_11_300
*1662 FILLER_11_310
*1663 FILLER_11_319
*1664 FILLER_11_326
*1665 FILLER_11_332
*1666 FILLER_11_340
*1667 FILLER_11_348
*1668 FILLER_11_354
*1669 FILLER_11_363
*1670 FILLER_11_370
*1671 FILLER_11_384
*1672 FILLER_11_395
*1673 FILLER_11_40
*1674 FILLER_11_404
*1675 FILLER_11_413
*1676 FILLER_11_420
*1677 FILLER_11_427
*1678 FILLER_11_431
*1679 FILLER_11_444
*1680 FILLER_11_454
*1681 FILLER_11_461
*1682 FILLER_11_468
*1683 FILLER_11_477
*1684 FILLER_11_48
*1685 FILLER_11_491
*1686 FILLER_11_500
*1687 FILLER_11_507
*1688 FILLER_11_511
*1689 FILLER_11_516
*1690 FILLER_11_52
*1691 FILLER_11_520
*1692 FILLER_11_526
*1693 FILLER_11_534
*1694 FILLER_11_541
*1695 FILLER_11_552
*1696 FILLER_11_566
*1697 FILLER_11_572
*1698 FILLER_11_578
*1699 FILLER_11_584
*1700 FILLER_11_596
*1701 FILLER_11_608
*1702 FILLER_11_617
*1703 FILLER_11_69
*1704 FILLER_11_78
*1705 FILLER_11_8
*1706 FILLER_11_91
*1707 FILLER_11_97
*1708 FILLER_12_106
*1709 FILLER_12_122
*1710 FILLER_12_129
*1711 FILLER_12_136