*SPEF "ieee 1481-1999"
*DESIGN "pixel_macro"
*DATE "11:11:11 Fri 11 11, 1111"
*VENDOR "OpenRCX"
*PROGRAM "Parallel Extraction"
*VERSION "1.0"
*DESIGN_FLOW "NAME_SCOPE LOCAL" "PIN_CAP NONE"
*DIVIDER /
*DELIMITER :
*BUS_DELIMITER []
*T_UNIT 1 NS
*C_UNIT 1 PF
*R_UNIT 1 OHM
*L_UNIT 1 HENRY

*NAME_MAP
*1 io_in[0]
*2 io_in[10]
*3 io_in[11]
*4 io_in[12]
*5 io_in[13]
*6 io_in[14]
*7 io_in[15]
*8 io_in[16]
*9 io_in[17]
*10 io_in[18]
*11 io_in[19]
*12 io_in[1]
*13 io_in[20]
*14 io_in[21]
*15 io_in[22]
*16 io_in[23]
*17 io_in[24]
*18 io_in[25]
*19 io_in[26]
*20 io_in[27]
*21 io_in[28]
*22 io_in[29]
*23 io_in[2]
*24 io_in[30]
*25 io_in[31]
*26 io_in[32]
*27 io_in[33]
*28 io_in[34]
*29 io_in[35]
*30 io_in[36]
*31 io_in[37]
*32 io_in[3]
*33 io_in[4]
*34 io_in[5]
*35 io_in[6]
*36 io_in[7]
*37 io_in[8]
*38 io_in[9]
*39 net90
*40 net100
*41 net101
*42 net102
*43 net103
*44 net104
*45 net105
*46 net106
*47 net107
*48 net108
*49 net109
*50 net91
*51 net110
*52 net111
*53 net112
*54 net113
*55 net114
*56 net115
*57 net116
*58 net117
*59 net118
*60 net119
*61 net92
*62 net120
*63 net121
*64 net122
*65 net123
*66 net124
*67 net125
*68 net126
*69 net127
*70 net93
*71 net94
*72 net95
*73 net96
*74 net97
*75 net98
*76 net99
*77 net128
*78 net138
*79 net139
*80 net140
*81 net141
*82 net142
*83 net143
*84 net144
*85 net145
*86 net146
*87 net147
*88 net129
*89 net148
*90 net149
*91 net150
*92 net151
*93 net152
*94 net153
*95 net154
*96 net155
*97 net156
*98 net157
*99 net130
*100 net158
*101 net159
*102 net160
*103 net161
*104 net162
*105 net163
*106 net164
*107 net165
*108 net131
*109 net132
*110 net133
*111 net134
*112 net135
*113 net136
*114 net137
*115 net166
*116 net167
*117 net168
*118 la_data_in[0]
*119 la_data_in[100]
*120 la_data_in[101]
*121 la_data_in[102]
*122 la_data_in[103]
*123 la_data_in[104]
*124 la_data_in[105]
*125 la_data_in[106]
*126 la_data_in[107]
*127 la_data_in[108]
*128 la_data_in[109]
*129 la_data_in[10]
*130 la_data_in[110]
*131 la_data_in[111]
*132 la_data_in[112]
*133 la_data_in[113]
*134 la_data_in[114]
*135 la_data_in[115]
*136 la_data_in[116]
*137 la_data_in[117]
*138 la_data_in[118]
*139 la_data_in[119]
*140 la_data_in[11]
*141 la_data_in[120]
*142 la_data_in[121]
*143 la_data_in[122]
*144 la_data_in[123]
*145 la_data_in[124]
*146 la_data_in[125]
*147 la_data_in[126]
*148 la_data_in[127]
*149 la_data_in[12]
*150 la_data_in[13]
*151 la_data_in[14]
*152 la_data_in[15]
*153 la_data_in[16]
*154 la_data_in[17]
*155 la_data_in[18]
*156 la_data_in[19]
*157 la_data_in[1]
*158 la_data_in[20]
*159 la_data_in[21]
*160 la_data_in[22]
*161 la_data_in[23]
*162 la_data_in[24]
*163 la_data_in[25]
*164 la_data_in[26]
*165 la_data_in[27]
*166 la_data_in[28]
*167 la_data_in[29]
*168 la_data_in[2]
*169 la_data_in[30]
*170 la_data_in[31]
*171 la_data_in[32]
*172 la_data_in[33]
*173 la_data_in[34]
*174 la_data_in[35]
*175 la_data_in[36]
*176 la_data_in[37]
*177 la_data_in[38]
*178 la_data_in[39]
*179 la_data_in[3]
*180 la_data_in[40]
*181 la_data_in[41]
*182 la_data_in[42]
*183 la_data_in[43]
*184 la_data_in[44]
*185 la_data_in[45]
*186 la_data_in[46]
*187 la_data_in[47]
*188 la_data_in[48]
*189 la_data_in[49]
*190 la_data_in[4]
*191 la_data_in[50]
*192 la_data_in[51]
*193 la_data_in[52]
*194 la_data_in[53]
*195 la_data_in[54]
*196 la_data_in[55]
*197 la_data_in[56]
*198 la_data_in[57]
*199 la_data_in[58]
*200 la_data_in[59]
*201 la_data_in[5]
*202 la_data_in[60]
*203 la_data_in[61]
*204 la_data_in[62]
*205 la_data_in[63]
*206 la_data_in[64]
*207 la_data_in[65]
*208 la_data_in[66]
*209 la_data_in[67]
*210 la_data_in[68]
*211 la_data_in[69]
*212 la_data_in[6]
*213 la_data_in[70]
*214 la_data_in[71]
*215 la_data_in[72]
*216 la_data_in[73]
*217 la_data_in[74]
*218 la_data_in[75]
*219 la_data_in[76]
*220 la_data_in[77]
*221 la_data_in[78]
*222 la_data_in[79]
*223 la_data_in[7]
*224 la_data_in[80]
*225 la_data_in[81]
*226 la_data_in[82]
*227 la_data_in[83]
*228 la_data_in[84]
*229 la_data_in[85]
*230 la_data_in[86]
*231 la_data_in[87]
*232 la_data_in[88]
*233 la_data_in[89]
*234 la_data_in[8]
*235 la_data_in[90]
*236 la_data_in[91]
*237 la_data_in[92]
*238 la_data_in[93]
*239 la_data_in[94]
*240 la_data_in[95]
*241 la_data_in[96]
*242 la_data_in[97]
*243 la_data_in[98]
*244 la_data_in[99]
*245 la_data_in[9]
*246 la_data_out[0]
*247 net251
*248 net252
*249 net253
*250 net254
*251 net255
*252 net256
*253 net257
*254 net258
*255 net259
*256 net260
*257 la_data_out[10]
*258 net261
*259 net262
*260 net263
*261 net264
*262 net265
*263 net266
*264 net267
*265 net268
*266 net269
*267 net270
*268 la_data_out[11]
*269 net271
*270 net272
*271 net273
*272 net274
*273 net275
*274 net276
*275 net277
*276 net278
*277 la_data_out[12]
*278 la_data_out[13]
*279 la_data_out[14]
*280 la_data_out[15]
*281 la_data_out[16]
*282 la_data_out[17]
*283 la_data_out[18]
*284 la_data_out[19]
*285 la_data_out[1]
*286 la_data_out[20]
*287 la_data_out[21]
*288 net173
*289 net174
*290 net175
*291 net176
*292 net177
*293 net178
*294 net179
*295 net180
*296 la_data_out[2]
*297 net181
*298 net182
*299 net183
*300 net184
*301 net185
*302 net186
*303 net187
*304 net188
*305 net189
*306 net190
*307 la_data_out[3]
*308 net191
*309 net192
*310 net193
*311 net194
*312 net195
*313 net196
*314 net197
*315 net198
*316 net199
*317 net200
*318 net169
*319 net201
*320 net202
*321 net203
*322 net204
*323 net205
*324 net206
*325 net207
*326 net208
*327 net209
*328 net210
*329 net170
*330 net211
*331 net212
*332 net213
*333 net214
*334 net215
*335 net216
*336 net217
*337 net218
*338 net219
*339 net220
*340 net171
*341 net221
*342 net222
*343 net223
*344 net224
*345 net225
*346 net226
*347 net227
*348 net228
*349 net229
*350 net230
*351 net172
*352 net231
*353 net232
*354 net233
*355 net234
*356 net235
*357 net236
*358 net237
*359 net238
*360 net239
*361 net240
*362 la_data_out[8]
*363 net241
*364 net242
*365 net243
*366 net244
*367 net245
*368 net246
*369 net247
*370 net248
*371 net249
*372 net250
*373 la_data_out[9]
*374 la_oenb[0]
*375 la_oenb[100]
*376 la_oenb[101]
*377 la_oenb[102]
*378 la_oenb[103]
*379 la_oenb[104]
*380 la_oenb[105]
*381 la_oenb[106]
*382 la_oenb[107]
*383 la_oenb[108]
*384 la_oenb[109]
*385 la_oenb[10]
*386 la_oenb[110]
*387 la_oenb[111]
*388 la_oenb[112]
*389 la_oenb[113]
*390 la_oenb[114]
*391 la_oenb[115]
*392 la_oenb[116]
*393 la_oenb[117]
*394 la_oenb[118]
*395 la_oenb[119]
*396 la_oenb[11]
*397 la_oenb[120]
*398 la_oenb[121]
*399 la_oenb[122]
*400 la_oenb[123]
*401 la_oenb[124]
*402 la_oenb[125]
*403 la_oenb[126]
*404 la_oenb[127]
*405 la_oenb[12]
*406 la_oenb[13]
*407 la_oenb[14]
*408 la_oenb[15]
*409 la_oenb[16]
*410 la_oenb[17]
*411 la_oenb[18]
*412 la_oenb[19]
*413 la_oenb[1]
*414 la_oenb[20]
*415 la_oenb[21]
*416 la_oenb[22]
*417 la_oenb[23]
*418 la_oenb[24]
*419 la_oenb[25]
*420 la_oenb[26]
*421 la_oenb[27]
*422 la_oenb[28]
*423 la_oenb[29]
*424 la_oenb[2]
*425 la_oenb[30]
*426 la_oenb[31]
*427 la_oenb[32]
*428 la_oenb[33]
*429 la_oenb[34]
*430 la_oenb[35]
*431 la_oenb[36]
*432 la_oenb[37]
*433 la_oenb[38]
*434 la_oenb[39]
*435 la_oenb[3]
*436 la_oenb[40]
*437 la_oenb[41]
*438 la_oenb[42]
*439 la_oenb[43]
*440 la_oenb[44]
*441 la_oenb[45]
*442 la_oenb[46]
*443 la_oenb[47]
*444 la_oenb[48]
*445 la_oenb[49]
*446 la_oenb[4]
*447 la_oenb[50]
*448 la_oenb[51]
*449 la_oenb[52]
*450 la_oenb[53]
*451 la_oenb[54]
*452 la_oenb[55]
*453 la_oenb[56]
*454 la_oenb[57]
*455 la_oenb[58]
*456 la_oenb[59]
*457 la_oenb[5]
*458 la_oenb[60]
*459 la_oenb[61]
*460 la_oenb[62]
*461 la_oenb[63]
*462 la_oenb[64]
*463 la_oenb[65]
*464 la_oenb[66]
*465 la_oenb[67]
*466 la_oenb[68]
*467 la_oenb[69]
*468 la_oenb[6]
*469 la_oenb[70]
*470 la_oenb[71]
*471 la_oenb[72]
*472 la_oenb[73]
*473 la_oenb[74]
*474 la_oenb[75]
*475 la_oenb[76]
*476 la_oenb[77]
*477 la_oenb[78]
*478 la_oenb[79]
*479 la_oenb[7]
*480 la_oenb[80]
*481 la_oenb[81]
*482 la_oenb[82]
*483 la_oenb[83]
*484 la_oenb[84]
*485 la_oenb[85]
*486 la_oenb[86]
*487 la_oenb[87]
*488 la_oenb[88]
*489 la_oenb[89]
*490 la_oenb[8]
*491 la_oenb[90]
*492 la_oenb[91]
*493 la_oenb[92]
*494 la_oenb[93]
*495 la_oenb[94]
*496 la_oenb[95]
*497 la_oenb[96]
*498 la_oenb[97]
*499 la_oenb[98]
*500 la_oenb[99]
*501 la_oenb[9]
*504 wb_clk_i
*505 wb_rst_i
*506 wbs_ack_o
*507 wbs_adr_i[0]
*508 wbs_adr_i[10]
*509 wbs_adr_i[11]
*510 wbs_adr_i[12]
*511 wbs_adr_i[13]
*512 wbs_adr_i[14]
*513 wbs_adr_i[15]
*514 wbs_adr_i[16]
*515 wbs_adr_i[17]
*516 wbs_adr_i[18]
*517 wbs_adr_i[19]
*518 wbs_adr_i[1]
*519 wbs_adr_i[20]
*520 wbs_adr_i[21]
*521 wbs_adr_i[22]
*522 wbs_adr_i[23]
*523 wbs_adr_i[24]
*524 wbs_adr_i[25]
*525 wbs_adr_i[26]
*526 wbs_adr_i[27]
*527 wbs_adr_i[28]
*528 wbs_adr_i[29]
*529 wbs_adr_i[2]
*530 wbs_adr_i[30]
*531 wbs_adr_i[31]
*532 wbs_adr_i[3]
*533 wbs_adr_i[4]
*534 wbs_adr_i[5]
*535 wbs_adr_i[6]
*536 wbs_adr_i[7]
*537 wbs_adr_i[8]
*538 wbs_adr_i[9]
*539 wbs_cyc_i
*540 wbs_dat_i[0]
*541 wbs_dat_i[10]
*542 wbs_dat_i[11]
*543 wbs_dat_i[12]
*544 wbs_dat_i[13]
*545 wbs_dat_i[14]
*546 wbs_dat_i[15]
*547 wbs_dat_i[16]
*548 wbs_dat_i[17]
*549 wbs_dat_i[18]
*550 wbs_dat_i[19]
*551 wbs_dat_i[1]
*552 wbs_dat_i[20]
*553 wbs_dat_i[21]
*554 wbs_dat_i[22]
*555 wbs_dat_i[23]
*556 wbs_dat_i[24]
*557 wbs_dat_i[25]
*558 wbs_dat_i[26]
*559 wbs_dat_i[27]
*560 wbs_dat_i[28]
*561 wbs_dat_i[29]
*562 wbs_dat_i[2]
*563 wbs_dat_i[30]
*564 wbs_dat_i[31]
*565 wbs_dat_i[3]
*566 wbs_dat_i[4]
*567 wbs_dat_i[5]
*568 wbs_dat_i[6]
*569 wbs_dat_i[7]
*570 wbs_dat_i[8]
*571 wbs_dat_i[9]
*572 wbs_dat_o[0]
*573 wbs_dat_o[10]
*574 wbs_dat_o[11]
*575 wbs_dat_o[12]
*576 wbs_dat_o[13]
*577 wbs_dat_o[14]
*578 net279
*579 net280
*580 net281
*581 net282
*582 net283
*583 wbs_dat_o[1]
*584 net284
*585 net285
*586 net286
*587 net287
*588 net288
*589 net289
*590 net290
*591 net291
*592 net292
*593 net293
*594 wbs_dat_o[2]
*595 net294
*596 net295
*597 wbs_dat_o[3]
*598 wbs_dat_o[4]
*599 wbs_dat_o[5]
*600 wbs_dat_o[6]
*601 wbs_dat_o[7]
*602 wbs_dat_o[8]
*603 wbs_dat_o[9]
*604 wbs_sel_i[0]
*605 wbs_sel_i[1]
*606 wbs_sel_i[2]
*607 wbs_sel_i[3]
*608 wbs_stb_i
*609 wbs_we_i
*610 _0000_
*611 _0001_
*612 _0002_
*613 _0003_
*614 _0004_
*615 _0005_
*616 _0006_
*617 _0007_
*618 _0008_
*619 _0009_
*620 _0010_
*621 _0011_
*622 _0012_
*623 _0013_
*624 _0014_
*625 _0015_
*626 _0016_
*627 _0017_
*628 _0018_
*629 _0019_
*630 _0020_
*631 _0021_
*632 _0022_
*633 _0023_
*634 _0024_
*635 _0025_
*636 _0026_
*637 _0027_
*638 _0028_
*639 _0029_
*640 _0030_
*641 _0031_
*642 _0032_
*643 _0033_
*644 _0034_
*645 _0035_
*646 _0036_
*647 _0037_
*648 _0038_
*649 _0039_
*650 _0040_
*651 _0041_
*652 _0042_
*653 _0043_
*654 _0044_
*655 _0045_
*656 _0046_
*657 _0047_
*658 _0048_
*659 _0049_
*660 _0050_
*661 _0051_
*662 _0052_
*663 _0053_
*664 _0054_
*665 _0055_
*666 _0056_
*667 _0057_
*668 _0058_
*669 _0059_
*670 _0060_
*671 _0061_
*672 _0062_
*673 _0063_
*674 _0064_
*675 _0065_
*676 _0066_
*677 _0067_
*678 _0068_
*679 _0069_
*680 _0070_
*681 _0071_
*682 _0072_
*683 _0073_
*684 _0074_
*685 _0075_
*686 _0076_
*687 _0077_
*688 _0078_
*689 _0079_
*690 _0080_
*691 _0081_
*692 _0082_
*693 _0083_
*694 _0084_
*695 _0085_
*696 _0086_
*697 _0087_
*698 _0088_
*699 _0089_
*700 _0090_
*701 _0091_
*702 _0092_
*703 _0093_
*704 _0094_
*705 _0095_
*706 _0096_
*707 _0097_
*708 _0098_
*709 _0099_
*710 _0100_
*711 _0101_
*712 _0102_
*713 _0103_
*714 _0104_
*715 _0105_
*716 _0106_
*717 _0107_
*718 _0108_
*719 _0109_
*720 _0110_
*721 _0111_
*722 _0112_
*723 _0113_
*724 _0114_
*725 _0115_
*726 _0116_
*727 _0117_
*728 _0118_
*729 _0119_
*730 _0120_
*731 _0121_
*732 _0122_
*733 _0123_
*734 _0124_
*735 _0125_
*736 _0126_
*737 _0127_
*738 _0128_
*739 _0129_
*740 _0130_
*741 _0131_
*742 _0132_
*743 _0133_
*744 _0134_
*745 _0135_
*746 _0136_
*747 _0137_
*748 _0138_
*749 _0139_
*750 _0140_
*751 _0141_
*752 _0142_
*753 _0143_
*754 _0144_
*755 _0145_
*756 _0146_
*757 _0147_
*758 _0148_
*759 _0149_
*760 _0150_
*761 _0151_
*762 _0152_
*763 _0153_
*764 _0154_
*765 _0155_
*766 _0156_
*767 _0157_
*768 _0158_
*769 _0159_
*770 _0160_
*771 _0161_
*772 _0162_
*773 _0163_
*774 _0164_
*775 _0165_
*776 _0166_
*777 _0167_
*778 _0168_
*779 _0169_
*780 _0170_
*781 _0171_
*782 _0172_
*783 _0173_
*784 _0174_
*785 _0175_
*786 _0176_
*787 _0177_
*788 _0178_
*789 _0179_
*790 _0180_
*791 _0181_
*792 _0182_
*793 _0183_
*794 _0184_
*795 _0185_
*796 _0186_
*797 _0187_
*798 _0188_
*799 _0189_
*800 _0190_
*801 _0191_
*802 _0192_
*803 _0193_
*804 _0194_
*805 _0195_
*806 _0196_
*807 _0197_
*808 _0198_
*809 _0199_
*810 _0200_
*811 _0201_
*812 _0202_
*813 _0203_
*814 _0204_
*815 _0205_
*816 _0206_
*817 _0207_
*818 _0208_
*819 _0209_
*820 _0210_
*821 _0211_
*822 _0212_
*823 _0213_
*824 _0214_
*825 _0215_
*826 _0216_
*827 _0217_
*828 _0218_
*829 _0219_
*830 _0220_
*831 _0221_
*832 _0222_
*833 _0223_
*834 _0224_
*835 _0225_
*836 _0226_
*837 _0227_
*838 _0228_
*839 _0229_
*840 _0230_
*841 _0231_
*842 _0232_
*843 _0233_
*844 _0234_
*845 _0235_
*846 _0236_
*847 _0237_
*848 _0238_
*849 _0239_
*850 _0240_
*851 _0241_
*852 _0242_
*853 _0243_
*854 _0244_
*855 _0245_
*856 _0246_
*857 _0247_
*858 _0248_
*859 _0249_
*860 _0250_
*861 _0251_
*862 _0252_
*863 _0253_
*864 _0254_
*865 _0255_
*866 _0256_
*867 _0257_
*868 _0258_
*869 _0259_
*870 _0260_
*871 _0261_
*872 _0262_
*873 _0263_
*874 _0264_
*875 _0265_
*876 _0266_
*877 _0267_
*878 _0268_
*879 _0269_
*880 _0270_
*881 _0271_
*882 _0272_
*883 _0273_
*884 _0274_
*885 _0275_
*886 _0276_
*887 _0277_
*888 _0278_
*889 _0279_
*890 _0280_
*891 _0281_
*892 _0282_
*893 _0283_
*894 _0284_
*895 _0285_
*896 _0286_
*897 _0287_
*898 _0288_
*899 _0289_
*900 _0290_
*901 _0291_
*902 _0292_
*903 _0293_
*904 _0294_
*905 _0295_
*906 _0296_
*907 _0297_
*908 _0298_
*909 _0299_
*910 _0300_
*911 _0301_
*912 _0302_
*913 _0303_
*914 _0304_
*915 _0305_
*916 _0306_
*917 _0307_
*918 _0308_
*919 _0309_
*920 _0310_
*921 _0311_
*922 _0312_
*923 _0313_
*924 _0314_
*925 _0315_
*926 _0316_
*927 _0317_
*928 _0318_
*929 _0319_
*930 _0320_
*931 _0321_
*932 _0322_
*933 _0323_
*934 _0324_
*935 _0325_
*936 _0326_
*937 _0327_
*938 _0328_
*939 _0329_
*940 _0330_
*941 _0331_
*942 _0332_
*943 _0333_
*944 _0334_
*945 _0335_
*946 _0336_
*947 _0337_
*948 _0338_
*949 _0339_
*950 _0340_
*951 _0341_
*952 _0342_
*953 _0343_
*954 _0344_
*955 _0345_
*956 _0346_
*957 _0347_
*958 _0348_
*959 _0349_
*960 _0350_
*961 _0351_
*962 _0352_
*963 _0353_
*964 _0354_
*965 _0355_
*966 _0356_
*967 _0357_
*968 _0358_
*969 _0359_
*970 _0360_
*971 _0361_
*972 _0362_
*973 _0363_
*974 _0364_
*975 _0365_
*976 _0366_
*977 _0367_
*978 _0368_
*979 _0369_
*980 _0370_
*981 _0371_
*982 _0372_
*983 _0373_
*984 _0374_
*985 _0375_
*986 _0376_
*987 _0377_
*988 _0378_
*989 _0379_
*990 _0380_
*991 _0381_
*992 _0382_
*993 _0383_
*994 _0384_
*995 _0385_
*996 _0386_
*997 _0387_
*998 _0388_
*999 _0389_
*1000 _0390_
*1001 _0391_
*1002 _0392_
*1003 _0393_
*1004 _0394_
*1005 _0395_
*1006 _0396_
*1007 _0397_
*1008 clknet_0_wb_clk_i
*1009 clknet_2_0__leaf_wb_clk_i
*1010 clknet_2_1__leaf_wb_clk_i
*1011 clknet_2_2__leaf_wb_clk_i
*1012 clknet_2_3__leaf_wb_clk_i
*1013 net1
*1014 net10
*1015 net11
*1016 net12
*1017 net13
*1018 net14
*1019 net15
*1020 net16
*1021 net17
*1022 net18
*1023 net19
*1024 net2
*1025 net20
*1026 net21
*1027 net22
*1028 net23
*1029 net24
*1030 net25
*1031 net26
*1032 net27
*1033 net28
*1034 net29
*1035 net3
*1036 net30
*1037 net31
*1038 net32
*1039 net33
*1040 net34
*1041 net35
*1042 net36
*1043 net37
*1044 net38
*1045 net39
*1046 net4
*1047 net40
*1048 net41
*1049 net42
*1050 net43
*1051 net44
*1052 net45
*1053 net46
*1054 net47
*1055 net48
*1056 net49
*1057 net5
*1058 net50
*1059 net51
*1060 net52
*1061 net53
*1062 net54
*1063 net55
*1064 net56
*1065 net57
*1066 net58
*1067 net59
*1068 net6
*1069 net60
*1070 net61
*1071 net62
*1072 net63
*1073 net64
*1074 net65
*1075 net66
*1076 net67
*1077 net68
*1078 net69
*1079 net7
*1080 net70
*1081 net71
*1082 net72
*1083 net73
*1084 net74
*1085 net75
*1086 net76
*1087 net77
*1088 net78
*1089 net79
*1090 net8
*1091 net80
*1092 net81
*1093 net82
*1094 net83
*1095 net84
*1096 net85
*1097 net86
*1098 net87
*1099 net88
*1100 net89
*1101 net9
*1102 pixel_fsm0\.adj_max_clk\[0\]
*1103 pixel_fsm0\.adj_max_clk\[1\]
*1104 pixel_fsm0\.adj_max_clk\[2\]
*1105 pixel_fsm0\.adj_max_clk\[3\]
*1106 pixel_fsm0\.adj_max_clk\[4\]
*1107 pixel_fsm0\.adj_max_clk\[5\]
*1108 pixel_fsm0\.adj_max_clk\[6\]
*1109 pixel_fsm0\.adj_max_clk\[7\]
*1110 pixel_fsm0\.adj_max_clk\[8\]
*1111 pixel_fsm0\.adj_max_clk\[9\]
*1112 pixel_fsm0\.data_out\[10\]
*1113 pixel_fsm0\.data_out\[11\]
*1114 pixel_fsm0\.data_out\[12\]
*1115 pixel_fsm0\.data_out\[13\]
*1116 pixel_fsm0\.data_out\[14\]
*1117 pixel_fsm0\.data_out\[2\]
*1118 pixel_fsm0\.data_out\[3\]
*1119 pixel_fsm0\.data_out\[4\]
*1120 pixel_fsm0\.data_out\[5\]
*1121 pixel_fsm0\.data_out\[6\]
*1122 pixel_fsm0\.data_out\[7\]
*1123 pixel_fsm0\.data_out\[8\]
*1124 pixel_fsm0\.data_out\[9\]
*1125 pixel_fsm0\.inst1\.next_state\[0\]
*1126 pixel_fsm0\.inst1\.next_state\[1\]
*1127 pixel_fsm0\.inst1\.next_state\[2\]
*1128 pixel_fsm0\.inst1\.pxl_start_i
*1129 pixel_fsm0\.inst1\.state\[0\]
*1130 pixel_fsm0\.inst1\.state\[1\]
*1131 pixel_fsm0\.inst1\.state\[2\]
*1132 pixel_fsm0\.inst2\.loc_max_clk\[0\]
*1133 pixel_fsm0\.inst2\.loc_max_clk\[1\]
*1134 pixel_fsm0\.inst2\.loc_max_clk\[2\]
*1135 pixel_fsm0\.inst2\.loc_max_clk\[3\]
*1136 pixel_fsm0\.inst2\.loc_max_clk\[4\]
*1137 pixel_fsm0\.inst2\.loc_max_clk\[5\]
*1138 pixel_fsm0\.inst2\.loc_max_clk\[6\]
*1139 pixel_fsm0\.inst2\.loc_max_clk\[7\]
*1140 pixel_fsm0\.inst2\.loc_max_clk\[8\]
*1141 pixel_fsm0\.inst2\.loc_max_clk\[9\]
*1142 pixel_fsm0\.inst4\.pixel_count_max
*1143 ANTENNA__0479__A2
*1144 ANTENNA__0483__C
*1145 ANTENNA__0614__A
*1146 ANTENNA__0616__A
*1147 ANTENNA__0618__A
*1148 ANTENNA__0620__A
*1149 ANTENNA__0622__A
*1150 ANTENNA__0625__A
*1151 ANTENNA__0627__A
*1152 ANTENNA__0629__A
*1153 ANTENNA__0647__A
*1154 ANTENNA__0649__A
*1155 ANTENNA__0678__A
*1156 ANTENNA__0681__C1
*1157 ANTENNA__0693__A1
*1158 ANTENNA__0693__C1
*1159 ANTENNA__0695__C1
*1160 ANTENNA__0697__C1
*1161 ANTENNA__0725__A1
*1162 ANTENNA__0769__A1
*1163 ANTENNA__0776__A1
*1164 ANTENNA__0782__A1
*1165 ANTENNA__0785__A1
*1166 ANTENNA__0787__A1
*1167 ANTENNA__0789__A1
*1168 ANTENNA__0791__A1
*1169 ANTENNA__0793__A1
*1170 ANTENNA__0795__A1
*1171 ANTENNA__0820__SET_B
*1172 ANTENNA_clkbuf_0_wb_clk_i_A
*1173 ANTENNA_input10_A
*1174 ANTENNA_input11_A
*1175 ANTENNA_input12_A
*1176 ANTENNA_input13_A
*1177 ANTENNA_input14_A
*1178 ANTENNA_input15_A
*1179 ANTENNA_input16_A
*1180 ANTENNA_input17_A
*1181 ANTENNA_input18_A
*1182 ANTENNA_input19_A
*1183 ANTENNA_input1_A
*1184 ANTENNA_input20_A
*1185 ANTENNA_input21_A
*1186 ANTENNA_input22_A
*1187 ANTENNA_input23_A
*1188 ANTENNA_input24_A
*1189 ANTENNA_input25_A
*1190 ANTENNA_input26_A
*1191 ANTENNA_input27_A
*1192 ANTENNA_input2_A
*1193 ANTENNA_input3_A
*1194 ANTENNA_input4_A
*1195 ANTENNA_input5_A
*1196 ANTENNA_input6_A
*1197 ANTENNA_input7_A
*1198 ANTENNA_input8_A
*1199 ANTENNA_input9_A
*1200 ANTENNA_output40_A
*1201 FILLER_0_10
*1202 FILLER_0_100
*1203 FILLER_0_108
*1204 FILLER_0_113
*1205 FILLER_0_122
*1206 FILLER_0_136
*1207 FILLER_0_141
*1208 FILLER_0_145
*1209 FILLER_0_156
*1210 FILLER_0_164
*1211 FILLER_0_17
*1212 FILLER_0_173
*1213 FILLER_0_181
*1214 FILLER_0_189
*1215 FILLER_0_195
*1216 FILLER_0_201
*1217 FILLER_0_212
*1218 FILLER_0_220
*1219 FILLER_0_225
*1220 FILLER_0_232
*1221 FILLER_0_24
*1222 FILLER_0_240
*1223 FILLER_0_248
*1224 FILLER_0_253
*1225 FILLER_0_258
*1226 FILLER_0_266
*1227 FILLER_0_275
*1228 FILLER_0_279
*1229 FILLER_0_281
*1230 FILLER_0_289
*1231 FILLER_0_297
*1232 FILLER_0_3
*1233 FILLER_0_304
*1234 FILLER_0_31
*1235 FILLER_0_311
*1236 FILLER_0_318
*1237 FILLER_0_325
*1238 FILLER_0_332
*1239 FILLER_0_337
*1240 FILLER_0_346
*1241 FILLER_0_353
*1242 FILLER_0_360
*1243 FILLER_0_365
*1244 FILLER_0_369
*1245 FILLER_0_376
*1246 FILLER_0_38
*1247 FILLER_0_383
*1248 FILLER_0_391
*1249 FILLER_0_396
*1250 FILLER_0_403
*1251 FILLER_0_410
*1252 FILLER_0_418
*1253 FILLER_0_424
*1254 FILLER_0_431
*1255 FILLER_0_438
*1256 FILLER_0_446
*1257 FILLER_0_45
*1258 FILLER_0_452
*1259 FILLER_0_459
*1260 FILLER_0_466
*1261 FILLER_0_474
*1262 FILLER_0_480
*1263 FILLER_0_487
*1264 FILLER_0_494
*1265 FILLER_0_502
*1266 FILLER_0_508
*1267 FILLER_0_515
*1268 FILLER_0_52
*1269 FILLER_0_522
*1270 FILLER_0_530
*1271 FILLER_0_536
*1272 FILLER_0_543
*1273 FILLER_0_550
*1274 FILLER_0_558
*1275 FILLER_0_564
*1276 FILLER_0_571
*1277 FILLER_0_578
*1278 FILLER_0_586
*1279 FILLER_0_59
*1280 FILLER_0_592
*1281 FILLER_0_599
*1282 FILLER_0_606
*1283 FILLER_0_614
*1284 FILLER_0_620
*1285 FILLER_0_627
*1286 FILLER_0_634
*1287 FILLER_0_642
*1288 FILLER_0_645
*1289 FILLER_0_657
*1290 FILLER_0_669
*1291 FILLER_0_673
*1292 FILLER_0_685
*1293 FILLER_0_697
*1294 FILLER_0_7
*1295 FILLER_0_701
*1296 FILLER_0_713
*1297 FILLER_0_725
*1298 FILLER_0_729
*1299 FILLER_0_79
*1300 FILLER_0_83
*1301 FILLER_0_85
*1302 FILLER_0_92
*1303 FILLER_100_109
*1304 FILLER_100_121
*1305 FILLER_100_133
*1306 FILLER_100_139
*1307 FILLER_100_141
*1308 FILLER_100_15
*1309 FILLER_100_153
*1310 FILLER_100_165
*1311 FILLER_100_177
*1312 FILLER_100_189
*1313 FILLER_100_195
*1314 FILLER_100_197
*1315 FILLER_100_209
*1316 FILLER_100_221
*1317 FILLER_100_233
*1318 FILLER_100_245
*1319 FILLER_100_251
*1320 FILLER_100_256
*1321 FILLER_100_268
*1322 FILLER_100_27
*1323 FILLER_100_280
*1324 FILLER_100_29
*1325 FILLER_100_292
*1326 FILLER_100_3
*1327 FILLER_100_304
*1328 FILLER_100_309
*1329 FILLER_100_321
*1330 FILLER_100_333
*1331 FILLER_100_345
*1332 FILLER_100_357
*1333 FILLER_100_363
*1334 FILLER_100_365
*1335 FILLER_100_377
*1336 FILLER_100_389
*1337 FILLER_100_401
*1338 FILLER_100_41
*1339 FILLER_100_413
*1340 FILLER_100_419
*1341 FILLER_100_421
*1342 FILLER_100_433
*1343 FILLER_100_437
*1344 FILLER_100_441
*1345 FILLER_100_453
*1346 FILLER_100_465
*1347 FILLER_100_473
*1348 FILLER_100_477
*1349 FILLER_100_489
*1350 FILLER_100_501
*1351 FILLER_100_513
*1352 FILLER_100_525
*1353 FILLER_100_53
*1354 FILLER_100_531
*1355 FILLER_100_533
*1356 FILLER_100_545
*1357 FILLER_100_557
*1358 FILLER_100_569
*1359 FILLER_100_581
*1360 FILLER_100_587
*1361 FILLER_100_589
*1362 FILLER_100_601
*1363 FILLER_100_613
*1364 FILLER_100_625
*1365 FILLER_100_637
*1366 FILLER_100_643
*1367 FILLER_100_645
*1368 FILLER_100_65
*1369 FILLER_100_657
*1370 FILLER_100_669
*1371 FILLER_100_681
*1372 FILLER_100_689
*1373 FILLER_100_693
*1374 FILLER_100_699
*1375 FILLER_100_701
*1376 FILLER_100_713
*1377 FILLER_100_725
*1378 FILLER_100_77
*1379 FILLER_100_83
*1380 FILLER_100_85
*1381 FILLER_100_97
*1382 FILLER_101_108
*1383 FILLER_101_113
*1384 FILLER_101_117
*1385 FILLER_101_128
*1386 FILLER_101_135
*1387 FILLER_101_139
*1388 FILLER_101_141
*1389 FILLER_101_146
*1390 FILLER_101_15
*1391 FILLER_101_153
*1392 FILLER_101_164
*1393 FILLER_101_172
*1394 FILLER_101_178
*1395 FILLER_101_182
*1396 FILLER_101_189
*1397 FILLER_101_195
*1398 FILLER_101_200
*1399 FILLER_101_207
*1400 FILLER_101_215
*1401 FILLER_101_219
*1402 FILLER_101_223
*1403 FILLER_101_228
*1404 FILLER_101_232
*1405 FILLER_101_236
*1406 FILLER_101_243
*1407 FILLER_101_251
*1408 FILLER_101_253
*1409 FILLER_101_257
*1410 FILLER_101_261
*1411 FILLER_101_265
*1412 FILLER_101_269
*1413 FILLER_101_27
*1414 FILLER_101_276
*1415 FILLER_101_281
*1416 FILLER_101_29
*1417 FILLER_101_290
*1418 FILLER_101_297
*1419 FILLER_101_3
*1420 FILLER_101_304
*1421 FILLER_101_309
*1422 FILLER_101_315
*1423 FILLER_101_321
*1424 FILLER_101_325
*1425 FILLER_101_332
*1426 FILLER_101_337
*1427 FILLER_101_344
*1428 FILLER_101_351
*1429 FILLER_101_360
*1430 FILLER_101_365
*1431 FILLER_101_369
*1432 FILLER_101_377
*1433 FILLER_101_38
*1434 FILLER_101_381
*1435 FILLER_101_388
*1436 FILLER_101_393
*1437 FILLER_101_399
*1438 FILLER_101_406
*1439 FILLER_101_418
*1440 FILLER_101_424
*1441 FILLER_101_431
*1442 FILLER_101_438
*1443 FILLER_101_446
*1444 FILLER_101_449
*1445 FILLER_101_45
*1446 FILLER_101_453
*1447 FILLER_101_460
*1448 FILLER_101_471
*1449 FILLER_101_475
*1450 FILLER_101_480
*1451 FILLER_101_489
*1452 FILLER_101_496
*1453 FILLER_101_508
*1454 FILLER_101_515
*1455 FILLER_101_52
*1456 FILLER_101_521
*1457 FILLER_101_525
*1458 FILLER_101_531
*1459 FILLER_101_536
*1460 FILLER_101_543
*1461 FILLER_101_550
*1462 FILLER_101_558
*1463 FILLER_101_564
*1464 FILLER_101_57
*1465 FILLER_101_571
*1466 FILLER_101_575
*1467 FILLER_101_579
*1468 FILLER_101_587
*1469 FILLER_101_592
*1470 FILLER_101_599
*1471 FILLER_101_606
*1472 FILLER_101_614
*1473 FILLER_101_620
*1474 FILLER_101_627
*1475 FILLER_101_63
*1476 FILLER_101_634
*1477 FILLER_101_642
*1478 FILLER_101_648
*1479 FILLER_101_655
*1480 FILLER_101_662
*1481 FILLER_101_670
*1482 FILLER_101_676
*1483 FILLER_101_683
*1484 FILLER_101_69
*1485 FILLER_101_690
*1486 FILLER_101_698
*1487 FILLER_101_701
*1488 FILLER_101_705
*1489 FILLER_101_712
*1490 FILLER_101_724
*1491 FILLER_101_729
*1492 FILLER_101_73
*1493 FILLER_101_80
*1494 FILLER_101_85
*1495 FILLER_101_92
*1496 FILLER_101_99
*1497 FILLER_10_105
*1498 FILLER_10_109
*1499 FILLER_10_117
*1500 FILLER_10_125
*1501 FILLER_10_129
*1502 FILLER_10_136
*1503 FILLER_10_141
*1504 FILLER_10_15
*1505 FILLER_10_154
*1506 FILLER_10_178
*1507 FILLER_10_187
*1508 FILLER_10_195
*1509 FILLER_10_202
*1510 FILLER_10_210
*1511 FILLER_10_233
*1512 FILLER_10_241
*1513 FILLER_10_247
*1514 FILLER_10_251
*1515 FILLER_10_253
*1516 FILLER_10_260
*1517 FILLER_10_268
*1518 FILLER_10_27
*1519 FILLER_10_280
*1520 FILLER_10_292
*1521 FILLER_10_3
*1522 FILLER_10_301
*1523 FILLER_10_307
*1524 FILLER_10_312
*1525 FILLER_10_324
*1526 FILLER_10_336
*1527 FILLER_10_341
*1528 FILLER_10_347
*1529 FILLER_10_360
*1530 FILLER_10_365
*1531 FILLER_10_37
*1532 FILLER_10_377
*1533 FILLER_10_389
*1534 FILLER_10_401
*1535 FILLER_10_413
*1536 FILLER_10_419
*1537 FILLER_10_421
*1538 FILLER_10_433
*1539 FILLER_10_445
*1540 FILLER_10_457
*1541 FILLER_10_469
*1542 FILLER_10_475
*1543 FILLER_10_477
*1544 FILLER_10_489
*1545 FILLER_10_49
*1546 FILLER_10_501
*1547 FILLER_10_513
*1548 FILLER_10_525
*1549 FILLER_10_531
*1550 FILLER_10_533
*1551 FILLER_10_545
*1552 FILLER_10_557
*1553 FILLER_10_569
*1554 FILLER_10_581
*1555 FILLER_10_587
*1556 FILLER_10_589
*1557 FILLER_10_601
*1558 FILLER_10_613
*1559 FILLER_10_625
*1560 FILLER_10_637
*1561 FILLER_10_643
*1562 FILLER_10_645
*1563 FILLER_10_657
*1564 FILLER_10_669
*1565 FILLER_10_681
*1566 FILLER_10_69
*1567 FILLER_10_693
*1568 FILLER_10_699
*1569 FILLER_10_701
*1570 FILLER_10_713
*1571 FILLER_10_725
*1572 FILLER_10_77
*1573 FILLER_10_80
*1574 FILLER_10_91
*1575 FILLER_11_106
*1576 FILLER_11_121
*1577 FILLER_11_131
*1578 FILLER_11_147
*1579 FILLER_11_15
*1580 FILLER_11_161
*1581 FILLER_11_167
*1582 FILLER_11_177
*1583 FILLER_11_189
*1584 FILLER_11_209
*1585 FILLER_11_221
*1586 FILLER_11_228
*1587 FILLER_11_23
*1588 FILLER_11_248
*1589 FILLER_11_256
*1590 FILLER_11_261
*1591 FILLER_11_268
*1592 FILLER_11_281
*1593 FILLER_11_289
*1594 FILLER_11_296
*1595 FILLER_11_3
*1596 FILLER_11_307
*1597 FILLER_11_315
*1598 FILLER_11_32
*1599 FILLER_11_323
*1600 FILLER_11_330
*1601 FILLER_11_342
*1602 FILLER_11_346
*1603 FILLER_11_350
*1604 FILLER_11_362
*1605 FILLER_11_374
*1606 FILLER_11_386
*1607 FILLER_11_393
*1608 FILLER_11_405
*1609 FILLER_11_417
*1610 FILLER_11_429
*1611 FILLER_11_441
*1612 FILLER_11_447
*1613 FILLER_11_449
*1614 FILLER_11_461
*1615 FILLER_11_473
*1616 FILLER_11_485
*1617 FILLER_11_497
*1618 FILLER_11_503
*1619 FILLER_11_505
*1620 FILLER_11_517
*1621 FILLER_11_52
*1622 FILLER_11_529
*1623 FILLER_11_541
*1624 FILLER_11_553
*1625 FILLER_11_559
*1626 FILLER_11_561
*1627 FILLER_11_57
*1628 FILLER_11_573
*1629 FILLER_11_585
*1630 FILLER_11_597
*1631 FILLER_11_609
*1632 FILLER_11_615
*1633 FILLER_11_617
*1634 FILLER_11_629
*1635 FILLER_11_641
*1636 FILLER_11_65
*1637 FILLER_11_653
*1638 FILLER_11_665
*1639 FILLER_11_671
*1640 FILLER_11_673
*1641 FILLER_11_685
*1642 FILLER_11_697
*1643 FILLER_11_709
*1644 FILLER_11_721
*1645 FILLER_11_727
*1646 FILLER_11_729
*1647 FILLER_11_82
*1648 FILLER_11_88
*1649 FILLER_11_92
*1650 FILLER_12_107
*1651 FILLER_12_129
*1652 FILLER_12_136
*1653 FILLER_12_146
*1654 FILLER_12_15
*1655 FILLER_12_160
*1656 FILLER_12_180
*1657 FILLER_12_187
*1658 FILLER_12_195
*1659 FILLER_12_199
*1660 FILLER_12_211
*1661 FILLER_12_233
*1662 FILLER_12_245
*1663 FILLER_12_251
*1664 FILLER_12_253
*1665 FILLER_12_257
*1666 FILLER_12_262
*1667 FILLER_12_27
*1668 FILLER_12_274
*1669 FILLER_12_279
*1670 FILLER_12_295
*1671 FILLER_12_3
*1672 FILLER_12_304
*1673 FILLER_12_321
*1674 FILLER_12_337
*1675 FILLER_12_343
*1676 FILLER_12_347
*1677 FILLER_12_35
*1678 FILLER_12_360
*1679 FILLER_12_365
*1680 FILLER_12_377
*1681 FILLER_12_389
*1682 FILLER_12_401
*1683 FILLER_12_413
*1684 FILLER_12_419
*1685 FILLER_12_421
*1686 FILLER_12_433
*1687 FILLER_12_445
*1688 FILLER_12_457
*1689 FILLER_12_469
*1690 FILLER_12_47
*1691 FILLER_12_475
*1692 FILLER_12_477
*1693 FILLER_12_489
*1694 FILLER_12_501
*1695 FILLER_12_513
*1696 FILLER_12_525
*1697 FILLER_12_531
*1698 FILLER_12_533
*1699 FILLER_12_545
*1700 FILLER_12_557
*1701 FILLER_12_56
*1702 FILLER_12_569
*1703 FILLER_12_581
*1704 FILLER_12_587
*1705 FILLER_12_589
*1706 FILLER_12_601
*1707 FILLER_12_613
*1708 FILLER_12_625
*1709 FILLER_12_637
*1710 FILLER_12_643
*1711 FILLER_12_645
*1712 FILLER_12_657
*1713 FILLER_12_669
*1714 FILLER_12_681
*1715 FILLER_12_693
*1716 FILLER_12_699
*1717 FILLER_12_70
*1718 FILLER_12_701
*1719 FILLER_12_713
*1720 FILLER_12_725
*1721 FILLER_12_80
*1722 FILLER_12_85
*1723 FILLER_12_89
*1724 FILLER_12_93
*1725 FILLER_13_105
*1726 FILLER_13_111
*1727 FILLER_13_113
*1728 FILLER_13_117
*1729 FILLER_13_123
*1730 FILLER_13_133
*1731 FILLER_13_139
*1732 FILLER_13_15
*1733 FILLER_13_152
*1734 FILLER_13_158
*1735 FILLER_13_166
*1736 FILLER_13_174
*1737 FILLER_13_178
*1738 FILLER_13_187
*1739 FILLER_13_193
*1740 FILLER_13_205
*1741 FILLER_13_217
*1742 FILLER_13_223
*1743 FILLER_13_225
*1744 FILLER_13_23
*1745 FILLER_13_237
*1746 FILLER_13_253
*1747 FILLER_13_259
*1748 FILLER_13_266
*1749 FILLER_13_274
*1750 FILLER_13_281
*1751 FILLER_13_287
*1752 FILLER_13_294
*1753 FILLER_13_3
*1754 FILLER_13_306
*1755 FILLER_13_32
*1756 FILLER_13_321