*SPEF "ieee 1481-1999"
*DESIGN "pixel_macro"
*DATE "11:11:11 Fri 11 11, 1111"
*VENDOR "OpenRCX"
*PROGRAM "Parallel Extraction"
*VERSION "1.0"
*DESIGN_FLOW "NAME_SCOPE LOCAL" "PIN_CAP NONE"
*DIVIDER /
*DELIMITER :
*BUS_DELIMITER []
*T_UNIT 1 NS
*C_UNIT 1 PF
*R_UNIT 1 OHM
*L_UNIT 1 HENRY

*NAME_MAP
*1 io_in[0]
*2 io_in[10]
*3 io_in[11]
*4 io_in[12]
*5 io_in[13]
*6 io_in[14]
*7 io_in[15]
*8 io_in[16]
*9 io_in[17]
*10 io_in[18]
*11 io_in[19]
*12 io_in[1]
*13 io_in[20]
*14 io_in[21]
*15 io_in[22]
*16 io_in[23]
*17 io_in[24]
*18 io_in[25]
*19 io_in[26]
*20 io_in[27]
*21 io_in[28]
*22 io_in[29]
*23 io_in[2]
*24 io_in[30]
*25 io_in[31]
*26 io_in[32]
*27 io_in[33]
*28 io_in[34]
*29 io_in[35]
*30 io_in[36]
*31 io_in[37]
*32 io_in[3]
*33 io_in[4]
*34 io_in[5]
*35 io_in[6]
*36 io_in[7]
*37 io_in[8]
*38 io_in[9]
*39 net234
*40 net244
*41 net245
*42 net246
*43 net247
*44 net248
*45 net249
*46 net250
*47 net251
*48 net252
*49 net253
*50 net235
*51 net254
*52 net255
*53 net256
*54 net257
*55 net258
*56 net259
*57 net260
*58 net261
*59 net262
*60 net263
*61 net236
*62 net264
*63 net265
*64 net266
*65 net267
*66 net268
*67 net269
*68 net270
*69 net271
*70 net237
*71 net238
*72 net239
*73 net240
*74 net241
*75 net242
*76 net243
*77 net196
*78 net206
*79 net207
*80 net208
*81 net209
*82 net210
*83 net211
*84 net212
*85 net213
*86 net214
*87 net215
*88 net197
*89 net216
*90 net217
*91 net218
*92 net219
*93 net220
*94 net221
*95 net222
*96 net223
*97 net224
*98 net225
*99 net198
*100 net226
*101 net227
*102 net228
*103 net229
*104 net230
*105 net231
*106 net232
*107 net233
*108 net199
*109 net200
*110 net201
*111 net202
*112 net203
*113 net204
*114 net205
*115 net193
*116 net194
*117 net195
*118 la_data_in[0]
*119 la_data_in[100]
*120 la_data_in[101]
*121 la_data_in[102]
*122 la_data_in[103]
*123 la_data_in[104]
*124 la_data_in[105]
*125 la_data_in[106]
*126 la_data_in[107]
*127 la_data_in[108]
*128 la_data_in[109]
*129 la_data_in[10]
*130 la_data_in[110]
*131 la_data_in[111]
*132 la_data_in[112]
*133 la_data_in[113]
*134 la_data_in[114]
*135 la_data_in[115]
*136 la_data_in[116]
*137 la_data_in[117]
*138 la_data_in[118]
*139 la_data_in[119]
*140 la_data_in[11]
*141 la_data_in[120]
*142 la_data_in[121]
*143 la_data_in[122]
*144 la_data_in[123]
*145 la_data_in[124]
*146 la_data_in[125]
*147 la_data_in[126]
*148 la_data_in[127]
*149 la_data_in[12]
*150 la_data_in[13]
*151 la_data_in[14]
*152 la_data_in[15]
*153 la_data_in[16]
*154 la_data_in[17]
*155 la_data_in[18]
*156 la_data_in[19]
*157 la_data_in[1]
*158 la_data_in[20]
*159 la_data_in[21]
*160 la_data_in[22]
*161 la_data_in[23]
*162 la_data_in[24]
*163 la_data_in[25]
*164 la_data_in[26]
*165 la_data_in[27]
*166 la_data_in[28]
*167 la_data_in[29]
*168 la_data_in[2]
*169 la_data_in[30]
*170 la_data_in[31]
*171 la_data_in[32]
*172 la_data_in[33]
*173 la_data_in[34]
*174 la_data_in[35]
*175 la_data_in[36]
*176 la_data_in[37]
*177 la_data_in[38]
*178 la_data_in[39]
*179 la_data_in[3]
*180 la_data_in[40]
*181 la_data_in[41]
*182 la_data_in[42]
*183 la_data_in[43]
*184 la_data_in[44]
*185 la_data_in[45]
*186 la_data_in[46]
*187 la_data_in[47]
*188 la_data_in[48]
*189 la_data_in[49]
*190 la_data_in[4]
*191 la_data_in[50]
*192 la_data_in[51]
*193 la_data_in[52]
*194 la_data_in[53]
*195 la_data_in[54]
*196 la_data_in[55]
*197 la_data_in[56]
*198 la_data_in[57]
*199 la_data_in[58]
*200 la_data_in[59]
*201 la_data_in[5]
*202 la_data_in[60]
*203 la_data_in[61]
*204 la_data_in[62]
*205 la_data_in[63]
*206 la_data_in[64]
*207 la_data_in[65]
*208 la_data_in[66]
*209 la_data_in[67]
*210 la_data_in[68]
*211 la_data_in[69]
*212 la_data_in[6]
*213 la_data_in[70]
*214 la_data_in[71]
*215 la_data_in[72]
*216 la_data_in[73]
*217 la_data_in[74]
*218 la_data_in[75]
*219 la_data_in[76]
*220 la_data_in[77]
*221 la_data_in[78]
*222 la_data_in[79]
*223 la_data_in[7]
*224 la_data_in[80]
*225 la_data_in[81]
*226 la_data_in[82]
*227 la_data_in[83]
*228 la_data_in[84]
*229 la_data_in[85]
*230 la_data_in[86]
*231 la_data_in[87]
*232 la_data_in[88]
*233 la_data_in[89]
*234 la_data_in[8]
*235 la_data_in[90]
*236 la_data_in[91]
*237 la_data_in[92]
*238 la_data_in[93]
*239 la_data_in[94]
*240 la_data_in[95]
*241 la_data_in[96]
*242 la_data_in[97]
*243 la_data_in[98]
*244 la_data_in[99]
*245 la_data_in[9]
*246 net272
*247 net165
*248 net166
*249 net167
*250 net168
*251 net169
*252 net170
*253 net171
*254 net172
*255 net173
*256 net174
*257 net273
*258 net175
*259 net176
*260 net177
*261 net178
*262 net179
*263 net180
*264 net181
*265 net182
*266 net183
*267 net184
*268 net274
*269 net185
*270 net186
*271 net187
*272 net188
*273 net189
*274 net190
*275 net191
*276 net192
*277 net275
*278 net80
*279 net81
*280 net82
*281 la_data_out[16]
*282 la_data_out[17]
*283 net83
*284 net84
*285 net71
*286 net85
*287 net86
*288 net87
*289 net88
*290 net89
*291 net90
*292 net91
*293 net92
*294 net93
*295 net94
*296 net72
*297 net95
*298 net96
*299 net97
*300 net98
*301 net99
*302 net100
*303 net101
*304 net102
*305 net103
*306 net104
*307 net73
*308 net105
*309 net106
*310 net107
*311 net108
*312 net109
*313 net110
*314 net111
*315 net112
*316 net113
*317 net114
*318 net74
*319 net115
*320 net116
*321 net117
*322 net118
*323 net119
*324 net120
*325 net121
*326 net122
*327 net123
*328 net124
*329 net75
*330 net125
*331 net126
*332 net127
*333 net128
*334 net129
*335 net130
*336 net131
*337 net132
*338 net133
*339 net134
*340 net76
*341 net135
*342 net136
*343 net137
*344 net138
*345 net139
*346 net140
*347 net141
*348 net142
*349 net143
*350 net144
*351 net77
*352 net145
*353 net146
*354 net147
*355 net148
*356 net149
*357 net150
*358 net151
*359 net152
*360 net153
*361 net154
*362 net78
*363 net155
*364 net156
*365 net157
*366 net158
*367 net159
*368 net160
*369 net161
*370 net162
*371 net163
*372 net164
*373 net79
*374 la_oenb[0]
*375 la_oenb[100]
*376 la_oenb[101]
*377 la_oenb[102]
*378 la_oenb[103]
*379 la_oenb[104]
*380 la_oenb[105]
*381 la_oenb[106]
*382 la_oenb[107]
*383 la_oenb[108]
*384 la_oenb[109]
*385 la_oenb[10]
*386 la_oenb[110]
*387 la_oenb[111]
*388 la_oenb[112]
*389 la_oenb[113]
*390 la_oenb[114]
*391 la_oenb[115]
*392 la_oenb[116]
*393 la_oenb[117]
*394 la_oenb[118]
*395 la_oenb[119]
*396 la_oenb[11]
*397 la_oenb[120]
*398 la_oenb[121]
*399 la_oenb[122]
*400 la_oenb[123]
*401 la_oenb[124]
*402 la_oenb[125]
*403 la_oenb[126]
*404 la_oenb[127]
*405 la_oenb[12]
*406 la_oenb[13]
*407 la_oenb[14]
*408 la_oenb[15]
*409 la_oenb[16]
*410 la_oenb[17]
*411 la_oenb[18]
*412 la_oenb[19]
*413 la_oenb[1]
*414 la_oenb[20]
*415 la_oenb[21]
*416 la_oenb[22]
*417 la_oenb[23]
*418 la_oenb[24]
*419 la_oenb[25]
*420 la_oenb[26]
*421 la_oenb[27]
*422 la_oenb[28]
*423 la_oenb[29]
*424 la_oenb[2]
*425 la_oenb[30]
*426 la_oenb[31]
*427 la_oenb[32]
*428 la_oenb[33]
*429 la_oenb[34]
*430 la_oenb[35]
*431 la_oenb[36]
*432 la_oenb[37]
*433 la_oenb[38]
*434 la_oenb[39]
*435 la_oenb[3]
*436 la_oenb[40]
*437 la_oenb[41]
*438 la_oenb[42]
*439 la_oenb[43]
*440 la_oenb[44]
*441 la_oenb[45]
*442 la_oenb[46]
*443 la_oenb[47]
*444 la_oenb[48]
*445 la_oenb[49]
*446 la_oenb[4]
*447 la_oenb[50]
*448 la_oenb[51]
*449 la_oenb[52]
*450 la_oenb[53]
*451 la_oenb[54]
*452 la_oenb[55]
*453 la_oenb[56]
*454 la_oenb[57]
*455 la_oenb[58]
*456 la_oenb[59]
*457 la_oenb[5]
*458 la_oenb[60]
*459 la_oenb[61]
*460 la_oenb[62]
*461 la_oenb[63]
*462 la_oenb[64]
*463 la_oenb[65]
*464 la_oenb[66]
*465 la_oenb[67]
*466 la_oenb[68]
*467 la_oenb[69]
*468 la_oenb[6]
*469 la_oenb[70]
*470 la_oenb[71]
*471 la_oenb[72]
*472 la_oenb[73]
*473 la_oenb[74]
*474 la_oenb[75]
*475 la_oenb[76]
*476 la_oenb[77]
*477 la_oenb[78]
*478 la_oenb[79]
*479 la_oenb[7]
*480 la_oenb[80]
*481 la_oenb[81]
*482 la_oenb[82]
*483 la_oenb[83]
*484 la_oenb[84]
*485 la_oenb[85]
*486 la_oenb[86]
*487 la_oenb[87]
*488 la_oenb[88]
*489 la_oenb[89]
*490 la_oenb[8]
*491 la_oenb[90]
*492 la_oenb[91]
*493 la_oenb[92]
*494 la_oenb[93]
*495 la_oenb[94]
*496 la_oenb[95]
*497 la_oenb[96]
*498 la_oenb[97]
*499 la_oenb[98]
*500 la_oenb[99]
*501 la_oenb[9]
*502 net70
*503 pxl_start_in_ext
*504 pxl_start_out
*507 wb_clk_i
*508 wb_rst_i
*509 net62
*510 wbs_adr_i[0]
*511 wbs_adr_i[10]
*512 wbs_adr_i[11]
*513 wbs_adr_i[12]
*514 wbs_adr_i[13]
*515 wbs_adr_i[14]
*516 wbs_adr_i[15]
*517 wbs_adr_i[16]
*518 wbs_adr_i[17]
*519 wbs_adr_i[18]
*520 wbs_adr_i[19]
*521 wbs_adr_i[1]
*522 wbs_adr_i[20]
*523 wbs_adr_i[21]
*524 wbs_adr_i[22]
*525 wbs_adr_i[23]
*526 wbs_adr_i[24]
*527 wbs_adr_i[25]
*528 wbs_adr_i[26]
*529 wbs_adr_i[27]
*530 wbs_adr_i[28]
*531 wbs_adr_i[29]
*532 wbs_adr_i[2]
*533 wbs_adr_i[30]
*534 wbs_adr_i[31]
*535 wbs_adr_i[3]
*536 wbs_adr_i[4]
*537 wbs_adr_i[5]
*538 wbs_adr_i[6]
*539 wbs_adr_i[7]
*540 wbs_adr_i[8]
*541 wbs_adr_i[9]
*542 wbs_cyc_i
*543 wbs_dat_i[0]
*544 wbs_dat_i[10]
*545 wbs_dat_i[11]
*546 wbs_dat_i[12]
*547 wbs_dat_i[13]
*548 wbs_dat_i[14]
*549 wbs_dat_i[15]
*550 wbs_dat_i[16]
*551 wbs_dat_i[17]
*552 wbs_dat_i[18]
*553 wbs_dat_i[19]
*554 wbs_dat_i[1]
*555 wbs_dat_i[20]
*556 wbs_dat_i[21]
*557 wbs_dat_i[22]
*558 wbs_dat_i[23]
*559 wbs_dat_i[24]
*560 wbs_dat_i[25]
*561 wbs_dat_i[26]
*562 wbs_dat_i[27]
*563 wbs_dat_i[28]
*564 wbs_dat_i[29]
*565 wbs_dat_i[2]
*566 wbs_dat_i[30]
*567 wbs_dat_i[31]
*568 wbs_dat_i[3]
*569 wbs_dat_i[4]
*570 wbs_dat_i[5]
*571 wbs_dat_i[6]
*572 wbs_dat_i[7]
*573 wbs_dat_i[8]
*574 wbs_dat_i[9]
*575 wbs_dat_o[0]
*576 wbs_dat_o[10]
*577 wbs_dat_o[11]
*578 wbs_dat_o[12]
*579 wbs_dat_o[13]
*580 wbs_dat_o[14]
*581 wbs_dat_o[15]
*582 wbs_dat_o[16]
*583 wbs_dat_o[17]
*584 wbs_dat_o[18]
*585 wbs_dat_o[19]
*586 wbs_dat_o[1]
*587 wbs_dat_o[20]
*588 wbs_dat_o[21]
*589 wbs_dat_o[22]
*590 wbs_dat_o[23]
*591 wbs_dat_o[24]
*592 net63
*593 net64
*594 net65
*595 net66
*596 net67
*597 wbs_dat_o[2]
*598 net68
*599 net69
*600 wbs_dat_o[3]
*601 wbs_dat_o[4]
*602 wbs_dat_o[5]
*603 wbs_dat_o[6]
*604 wbs_dat_o[7]
*605 wbs_dat_o[8]
*606 wbs_dat_o[9]
*607 wbs_sel_i[0]
*608 wbs_sel_i[1]
*609 wbs_sel_i[2]
*610 wbs_sel_i[3]
*611 wbs_stb_i
*612 wbs_we_i
*613 _000_
*614 _001_
*615 _002_
*616 _003_
*617 _004_
*618 _005_
*619 _006_
*620 _007_
*621 _008_
*622 _009_
*623 _010_
*624 _011_
*625 _012_
*626 _013_
*627 _014_
*628 _015_
*629 _016_
*630 _017_
*631 _018_
*632 _019_
*633 _020_
*634 _021_
*635 _022_
*636 _023_
*637 _024_
*638 _025_
*639 _026_
*640 _027_
*641 _028_
*642 _029_
*643 _030_
*644 _031_
*645 _032_
*646 _033_
*647 _034_
*648 _035_
*649 _036_
*650 _037_
*651 _038_
*652 _039_
*653 _040_
*654 _041_
*655 _042_
*656 _043_
*657 _044_
*658 _045_
*659 _046_
*660 _047_
*661 _048_
*662 _049_
*663 _050_
*664 _051_
*665 _052_
*666 _053_
*667 _054_
*668 _055_
*669 _056_
*670 _057_
*671 _058_
*672 _059_
*673 _060_
*674 _061_
*675 _062_
*676 _063_
*677 _064_
*678 _065_
*679 _066_
*680 _067_
*681 _068_
*682 _069_
*683 _070_
*684 _071_
*685 _072_
*686 _073_
*687 _074_
*688 _075_
*689 _076_
*690 _077_
*691 _078_
*692 _079_
*693 _080_
*694 _081_
*695 _082_
*696 _083_
*697 _084_
*698 _085_
*699 _086_
*700 _087_
*701 _088_
*702 _089_
*703 _090_
*704 _091_
*705 _092_
*706 _093_
*707 _094_
*708 _095_
*709 _096_
*710 _097_
*711 _098_
*712 _099_
*713 _100_
*714 _101_
*715 _102_
*716 _103_
*717 _104_
*718 _105_
*719 _106_
*720 _107_
*721 _108_
*722 _109_
*723 _110_
*724 _111_
*725 _112_
*726 _113_
*727 _114_
*728 _115_
*729 _116_
*730 _117_
*731 _118_
*732 _119_
*733 _120_
*734 _121_
*735 _122_
*736 _123_
*737 _124_
*738 _125_
*739 _126_
*740 _127_
*741 _128_
*742 _129_
*743 _130_
*744 _131_
*745 _132_
*746 _133_
*747 _134_
*748 _135_
*749 _136_
*750 _137_
*751 _138_
*752 _139_
*753 _140_
*754 _141_
*755 _142_
*756 _143_
*757 _144_
*758 _145_
*759 _146_
*760 _147_
*761 _148_
*762 _149_
*763 _150_
*764 _151_
*765 _152_
*766 _153_
*767 _154_
*768 _155_
*769 _156_
*770 _157_
*771 _158_
*772 _159_
*773 _160_
*774 _161_
*775 clknet_0_wb_clk_i
*776 clknet_2_0__leaf_wb_clk_i
*777 clknet_2_1__leaf_wb_clk_i
*778 clknet_2_2__leaf_wb_clk_i
*779 clknet_2_3__leaf_wb_clk_i
*780 control_reg_pxl_fsm\[0\]
*781 control_reg_pxl_fsm\[1\]
*782 control_reg_pxl_fsm\[24\]
*783 control_reg_pxl_fsm\[2\]
*784 control_reg_pxl_fsm\[3\]
*785 net1
*786 net10
*787 net11
*788 net12
*789 net13
*790 net14
*791 net15
*792 net16
*793 net17
*794 net18
*795 net19
*796 net2
*797 net20
*798 net21
*799 net22
*800 net23
*801 net24
*802 net25
*803 net26
*804 net27
*805 net28
*806 net29
*807 net3
*808 net30
*809 net31
*810 net32
*811 net33
*812 net34
*813 net35
*814 net36
*815 net37
*816 net38
*817 net39
*818 net4
*819 net40
*820 net41
*821 net42
*822 net43
*823 net44
*824 net45
*825 net46
*826 net47
*827 net48
*828 net49
*829 net5
*830 net50
*831 net51
*832 net52
*833 net53
*834 net54
*835 net55
*836 net56
*837 net57
*838 net58
*839 net59
*840 net6
*841 net60
*842 net61
*843 net7
*844 net8
*845 net9
*846 pixel_fsm0\.adj_max_clk\[0\]
*847 pixel_fsm0\.adj_max_clk\[1\]
*848 pixel_fsm0\.adj_max_clk\[2\]
*849 pixel_fsm0\.adj_max_clk\[3\]
*850 pixel_fsm0\.adj_max_clk\[4\]
*851 pixel_fsm0\.adj_max_clk\[5\]
*852 pixel_fsm0\.adj_max_clk\[6\]
*853 pixel_fsm0\.adj_max_clk\[7\]
*854 pixel_fsm0\.adj_max_clk\[8\]
*855 pixel_fsm0\.adj_max_clk\[9\]
*856 pixel_fsm0\.inst2\.loc_max_clk\[0\]
*857 pixel_fsm0\.inst2\.loc_max_clk\[1\]
*858 pixel_fsm0\.inst2\.loc_max_clk\[2\]
*859 pixel_fsm0\.inst2\.loc_max_clk\[3\]
*860 pixel_fsm0\.inst2\.loc_max_clk\[4\]
*861 pixel_fsm0\.inst2\.loc_max_clk\[5\]
*862 pixel_fsm0\.inst2\.loc_max_clk\[6\]
*863 pixel_fsm0\.inst2\.loc_max_clk\[7\]
*864 pixel_fsm0\.inst2\.loc_max_clk\[8\]
*865 pixel_fsm0\.inst2\.loc_max_clk\[9\]
*866 ANTENNA__169__A
*867 ANTENNA__174__B
*868 ANTENNA__176__A
*869 ANTENNA__177__A
*870 ANTENNA__179__A
*871 ANTENNA__195__A
*872 ANTENNA__196__A
*873 ANTENNA__210__A
*874 ANTENNA__211__A
*875 ANTENNA__225__A
*876 ANTENNA__240__A
*877 ANTENNA__254__B
*878 ANTENNA__255__A
*879 ANTENNA__257__A
*880 ANTENNA__260__A
*881 ANTENNA__270__A
*882 ANTENNA__272__A
*883 ANTENNA__274__A
*884 ANTENNA__284__A
*885 ANTENNA__286__A
*886 ANTENNA__288__A
*887 ANTENNA__298__A
*888 ANTENNA__299__A
*889 ANTENNA__300__A
*890 ANTENNA__302__A
*891 ANTENNA__312__A
*892 ANTENNA__313__A
*893 ANTENNA__314__A
*894 ANTENNA__316__A
*895 ANTENNA_clkbuf_0_wb_clk_i_A
*896 ANTENNA_input10_A
*897 ANTENNA_input11_A
*898 ANTENNA_input12_A
*899 ANTENNA_input13_A
*900 ANTENNA_input14_A
*901 ANTENNA_input15_A
*902 ANTENNA_input16_A
*903 ANTENNA_input17_A
*904 ANTENNA_input18_A
*905 ANTENNA_input19_A
*906 ANTENNA_input1_A
*907 ANTENNA_input20_A
*908 ANTENNA_input21_A
*909 ANTENNA_input22_A
*910 ANTENNA_input23_A
*911 ANTENNA_input24_A
*912 ANTENNA_input25_A
*913 ANTENNA_input26_A
*914 ANTENNA_input27_A
*915 ANTENNA_input28_A
*916 ANTENNA_input29_A
*917 ANTENNA_input2_A
*918 ANTENNA_input30_A
*919 ANTENNA_input31_A
*920 ANTENNA_input32_A
*921 ANTENNA_input33_A
*922 ANTENNA_input34_A
*923 ANTENNA_input3_A
*924 ANTENNA_input4_A
*925 ANTENNA_input5_A
*926 ANTENNA_input6_A
*927 ANTENNA_input7_A
*928 ANTENNA_input8_A
*929 ANTENNA_input9_A
*930 ANTENNA_output35_A
*931 FILLER_0_100
*932 FILLER_0_108
*933 FILLER_0_11
*934 FILLER_0_113
*935 FILLER_0_120
*936 FILLER_0_128
*937 FILLER_0_136
*938 FILLER_0_141
*939 FILLER_0_146
*940 FILLER_0_154
*941 FILLER_0_164
*942 FILLER_0_169
*943 FILLER_0_17
*944 FILLER_0_189
*945 FILLER_0_195
*946 FILLER_0_197
*947 FILLER_0_203
*948 FILLER_0_211
*949 FILLER_0_219
*950 FILLER_0_223
*951 FILLER_0_225
*952 FILLER_0_234
*953 FILLER_0_24
*954 FILLER_0_241
*955 FILLER_0_248
*956 FILLER_0_253
*957 FILLER_0_257
*958 FILLER_0_261
*959 FILLER_0_268
*960 FILLER_0_276
*961 FILLER_0_285
*962 FILLER_0_29
*963 FILLER_0_293
*964 FILLER_0_297
*965 FILLER_0_3
*966 FILLER_0_304
*967 FILLER_0_309
*968 FILLER_0_318
*969 FILLER_0_325
*970 FILLER_0_332
*971 FILLER_0_337
*972 FILLER_0_346
*973 FILLER_0_353
*974 FILLER_0_360
*975 FILLER_0_365
*976 FILLER_0_369
*977 FILLER_0_376
*978 FILLER_0_383
*979 FILLER_0_391
*980 FILLER_0_396
*981 FILLER_0_40
*982 FILLER_0_403
*983 FILLER_0_410
*984 FILLER_0_418
*985 FILLER_0_424
*986 FILLER_0_431
*987 FILLER_0_438
*988 FILLER_0_446
*989 FILLER_0_452
*990 FILLER_0_459
*991 FILLER_0_466
*992 FILLER_0_474
*993 FILLER_0_480
*994 FILLER_0_487
*995 FILLER_0_494
*996 FILLER_0_502
*997 FILLER_0_508
*998 FILLER_0_515
*999 FILLER_0_52
*1000 FILLER_0_522
*1001 FILLER_0_530
*1002 FILLER_0_536
*1003 FILLER_0_543
*1004 FILLER_0_550
*1005 FILLER_0_558
*1006 FILLER_0_564
*1007 FILLER_0_571
*1008 FILLER_0_578
*1009 FILLER_0_586
*1010 FILLER_0_592
*1011 FILLER_0_599
*1012 FILLER_0_60
*1013 FILLER_0_606
*1014 FILLER_0_614
*1015 FILLER_0_620
*1016 FILLER_0_627
*1017 FILLER_0_634
*1018 FILLER_0_642
*1019 FILLER_0_645
*1020 FILLER_0_657
*1021 FILLER_0_669
*1022 FILLER_0_673
*1023 FILLER_0_685
*1024 FILLER_0_697
*1025 FILLER_0_701
*1026 FILLER_0_713
*1027 FILLER_0_725
*1028 FILLER_0_729
*1029 FILLER_0_80
*1030 FILLER_0_85
*1031 FILLER_0_92
*1032 FILLER_100_109
*1033 FILLER_100_121
*1034 FILLER_100_133
*1035 FILLER_100_139
*1036 FILLER_100_141
*1037 FILLER_100_15
*1038 FILLER_100_153
*1039 FILLER_100_165
*1040 FILLER_100_177
*1041 FILLER_100_189
*1042 FILLER_100_195
*1043 FILLER_100_197
*1044 FILLER_100_209
*1045 FILLER_100_221
*1046 FILLER_100_228
*1047 FILLER_100_240
*1048 FILLER_100_253
*1049 FILLER_100_265
*1050 FILLER_100_27
*1051 FILLER_100_277
*1052 FILLER_100_282
*1053 FILLER_100_29
*1054 FILLER_100_294
*1055 FILLER_100_3
*1056 FILLER_100_306
*1057 FILLER_100_309
*1058 FILLER_100_321
*1059 FILLER_100_333
*1060 FILLER_100_345
*1061 FILLER_100_357
*1062 FILLER_100_363
*1063 FILLER_100_365
*1064 FILLER_100_377
*1065 FILLER_100_389
*1066 FILLER_100_401
*1067 FILLER_100_409
*1068 FILLER_100_41
*1069 FILLER_100_414
*1070 FILLER_100_421
*1071 FILLER_100_433
*1072 FILLER_100_445
*1073 FILLER_100_457
*1074 FILLER_100_469
*1075 FILLER_100_475
*1076 FILLER_100_477
*1077 FILLER_100_489
*1078 FILLER_100_501
*1079 FILLER_100_513
*1080 FILLER_100_525
*1081 FILLER_100_53
*1082 FILLER_100_531
*1083 FILLER_100_533
*1084 FILLER_100_545
*1085 FILLER_100_557
*1086 FILLER_100_569
*1087 FILLER_100_581
*1088 FILLER_100_587
*1089 FILLER_100_589
*1090 FILLER_100_601
*1091 FILLER_100_613
*1092 FILLER_100_625
*1093 FILLER_100_637
*1094 FILLER_100_643
*1095 FILLER_100_645
*1096 FILLER_100_65
*1097 FILLER_100_657
*1098 FILLER_100_666
*1099 FILLER_100_678
*1100 FILLER_100_690
*1101 FILLER_100_698
*1102 FILLER_100_701
*1103 FILLER_100_713
*1104 FILLER_100_725
*1105 FILLER_100_77
*1106 FILLER_100_83
*1107 FILLER_100_85
*1108 FILLER_100_97
*1109 FILLER_101_101
*1110 FILLER_101_108
*1111 FILLER_101_113
*1112 FILLER_101_119
*1113 FILLER_101_126
*1114 FILLER_101_132
*1115 FILLER_101_136
*1116 FILLER_101_144
*1117 FILLER_101_15
*1118 FILLER_101_155
*1119 FILLER_101_162
*1120 FILLER_101_169
*1121 FILLER_101_173
*1122 FILLER_101_180
*1123 FILLER_101_188
*1124 FILLER_101_192
*1125 FILLER_101_200
*1126 FILLER_101_209
*1127 FILLER_101_216
*1128 FILLER_101_225
*1129 FILLER_101_234
*1130 FILLER_101_24
*1131 FILLER_101_242
*1132 FILLER_101_246
*1133 FILLER_101_256
*1134 FILLER_101_263
*1135 FILLER_101_270
*1136 FILLER_101_278
*1137 FILLER_101_281
*1138 FILLER_101_288
*1139 FILLER_101_29
*1140 FILLER_101_297
*1141 FILLER_101_3
*1142 FILLER_101_304
*1143 FILLER_101_309
*1144 FILLER_101_313
*1145 FILLER_101_317
*1146 FILLER_101_324
*1147 FILLER_101_328
*1148 FILLER_101_332
*1149 FILLER_101_337
*1150 FILLER_101_342
*1151 FILLER_101_353
*1152 FILLER_101_36
*1153 FILLER_101_360
*1154 FILLER_101_365
*1155 FILLER_101_371
*1156 FILLER_101_378
*1157 FILLER_101_390
*1158 FILLER_101_396
*1159 FILLER_101_403
*1160 FILLER_101_410
*1161 FILLER_101_418
*1162 FILLER_101_421
*1163 FILLER_101_426
*1164 FILLER_101_433
*1165 FILLER_101_444
*1166 FILLER_101_45
*1167 FILLER_101_452
*1168 FILLER_101_458
*1169 FILLER_101_462
*1170 FILLER_101_469
*1171 FILLER_101_475
*1172 FILLER_101_480
*1173 FILLER_101_487
*1174 FILLER_101_498
*1175 FILLER_101_508
*1176 FILLER_101_512
*1177 FILLER_101_516
*1178 FILLER_101_52
*1179 FILLER_101_523
*1180 FILLER_101_531
*1181 FILLER_101_536
*1182 FILLER_101_543
*1183 FILLER_101_552
*1184 FILLER_101_564
*1185 FILLER_101_57
*1186 FILLER_101_571
*1187 FILLER_101_578
*1188 FILLER_101_586
*1189 FILLER_101_592
*1190 FILLER_101_599
*1191 FILLER_101_606
*1192 FILLER_101_61
*1193 FILLER_101_614
*1194 FILLER_101_620
*1195 FILLER_101_627
*1196 FILLER_101_634
*1197 FILLER_101_642
*1198 FILLER_101_648
*1199 FILLER_101_65
*1200 FILLER_101_655
*1201 FILLER_101_662
*1202 FILLER_101_670
*1203 FILLER_101_673
*1204 FILLER_101_678
*1205 FILLER_101_685
*1206 FILLER_101_696
*1207 FILLER_101_704
*1208 FILLER_101_716
*1209 FILLER_101_72
*1210 FILLER_101_720
*1211 FILLER_101_729
*1212 FILLER_101_76
*1213 FILLER_101_80
*1214 FILLER_101_85
*1215 FILLER_101_90
*1216 FILLER_10_108
*1217 FILLER_10_114
*1218 FILLER_10_124
*1219 FILLER_10_136
*1220 FILLER_10_141
*1221 FILLER_10_15
*1222 FILLER_10_160
*1223 FILLER_10_168
*1224 FILLER_10_172
*1225 FILLER_10_192
*1226 FILLER_10_199
*1227 FILLER_10_205
*1228 FILLER_10_209
*1229 FILLER_10_215
*1230 FILLER_10_227
*1231 FILLER_10_234
*1232 FILLER_10_243
*1233 FILLER_10_251
*1234 FILLER_10_255
*1235 FILLER_10_267
*1236 FILLER_10_27
*1237 FILLER_10_279
*1238 FILLER_10_29
*1239 FILLER_10_291
*1240 FILLER_10_3
*1241 FILLER_10_303
*1242 FILLER_10_307
*1243 FILLER_10_309
*1244 FILLER_10_321
*1245 FILLER_10_333
*1246 FILLER_10_345
*1247 FILLER_10_357
*1248 FILLER_10_363
*1249 FILLER_10_365
*1250 FILLER_10_37
*1251 FILLER_10_377
*1252 FILLER_10_389
*1253 FILLER_10_401
*1254 FILLER_10_413
*1255 FILLER_10_419
*1256 FILLER_10_421
*1257 FILLER_10_433
*1258 FILLER_10_445
*1259 FILLER_10_45
*1260 FILLER_10_457
*1261 FILLER_10_469
*1262 FILLER_10_475
*1263 FILLER_10_477
*1264 FILLER_10_489
*1265 FILLER_10_501
*1266 FILLER_10_513
*1267 FILLER_10_525
*1268 FILLER_10_531
*1269 FILLER_10_533
*1270 FILLER_10_54
*1271 FILLER_10_545
*1272 FILLER_10_557
*1273 FILLER_10_569
*1274 FILLER_10_581
*1275 FILLER_10_587
*1276 FILLER_10_589
*1277 FILLER_10_60
*1278 FILLER_10_601
*1279 FILLER_10_613
*1280 FILLER_10_625
*1281 FILLER_10_637
*1282 FILLER_10_643
*1283 FILLER_10_645
*1284 FILLER_10_657
*1285 FILLER_10_669
*1286 FILLER_10_681
*1287 FILLER_10_693
*1288 FILLER_10_699
*1289 FILLER_10_701
*1290 FILLER_10_713
*1291 FILLER_10_725
*1292 FILLER_10_80
*1293 FILLER_10_85
*1294 FILLER_10_91
*1295 FILLER_10_98
*1296 FILLER_11_107
*1297 FILLER_11_111
*1298 FILLER_11_113
*1299 FILLER_11_117
*1300 FILLER_11_128
*1301 FILLER_11_140
*1302 FILLER_11_146
*1303 FILLER_11_15
*1304 FILLER_11_150
*1305 FILLER_11_162
*1306 FILLER_11_169
*1307 FILLER_11_174
*1308 FILLER_11_198
*1309 FILLER_11_210
*1310 FILLER_11_214
*1311 FILLER_11_220
*1312 FILLER_11_23
*1313 FILLER_11_235
*1314 FILLER_11_247
*1315 FILLER_11_259
*1316 FILLER_11_271
*1317 FILLER_11_279
*1318 FILLER_11_28
*1319 FILLER_11_281
*1320 FILLER_11_293
*1321 FILLER_11_3
*1322 FILLER_11_305
*1323 FILLER_11_317
*1324 FILLER_11_329
*1325 FILLER_11_335
*1326 FILLER_11_337
*1327 FILLER_11_349
*1328 FILLER_11_361
*1329 FILLER_11_373
*1330 FILLER_11_385
*1331 FILLER_11_391
*1332 FILLER_11_393
*1333 FILLER_11_405
*1334 FILLER_11_417
*1335 FILLER_11_42
*1336 FILLER_11_429
*1337 FILLER_11_441
*1338 FILLER_11_447
*1339 FILLER_11_449
*1340 FILLER_11_461
*1341 FILLER_11_473
*1342 FILLER_11_485
*1343 FILLER_11_497
*1344 FILLER_11_503
*1345 FILLER_11_505
*1346 FILLER_11_517
*1347 FILLER_11_529
*1348 FILLER_11_54
*1349 FILLER_11_541
*1350 FILLER_11_553
*1351 FILLER_11_559
*1352 FILLER_11_561
*1353 FILLER_11_573
*1354 FILLER_11_585
*1355 FILLER_11_597
*1356 FILLER_11_609
*1357 FILLER_11_615
*1358 FILLER_11_617
*1359 FILLER_11_629
*1360 FILLER_11_641
*1361 FILLER_11_65
*1362 FILLER_11_653
*1363 FILLER_11_665
*1364 FILLER_11_671
*1365 FILLER_11_673
*1366 FILLER_11_685
*1367 FILLER_11_697
*1368 FILLER_11_709
*1369 FILLER_11_721
*1370 FILLER_11_727
*1371 FILLER_11_729
*1372 FILLER_11_73
*1373 FILLER_11_81
*1374 FILLER_11_90
*1375 FILLER_11_97
*1376 FILLER_12_103
*1377 FILLER_12_112
*1378 FILLER_12_120
*1379 FILLER_12_131
*1380 FILLER_12_139
*1381 FILLER_12_141
*1382 FILLER_12_145
*1383 FILLER_12_15
*1384 FILLER_12_156
*1385 FILLER_12_176
*1386 FILLER_12_182
*1387 FILLER_12_188
*1388 FILLER_12_197
*1389 FILLER_12_205
*1390 FILLER_12_21
*1391 FILLER_12_215
*1392 FILLER_12_229
*1393 FILLER_12_235
*1394 FILLER_12_24
*1395 FILLER_12_244
*1396 FILLER_12_253
*1397 FILLER_12_265
*1398 FILLER_12_277
*1399 FILLER_12_289
*1400 FILLER_12_3
*1401 FILLER_12_301
*1402 FILLER_12_307
*1403 FILLER_12_309
*1404 FILLER_12_32
*1405 FILLER_12_321
*1406 FILLER_12_333
*1407 FILLER_12_345
*1408 FILLER_12_357
*1409 FILLER_12_363
*1410 FILLER_12_365
*1411 FILLER_12_377
*1412 FILLER_12_389
*1413 FILLER_12_401
*1414 FILLER_12_413
*1415 FILLER_12_419
*1416 FILLER_12_421
*1417 FILLER_12_433
*1418 FILLER_12_445
*1419 FILLER_12_457
*1420 FILLER_12_46
*1421 FILLER_12_469
*1422 FILLER_12_475
*1423 FILLER_12_477
*1424 FILLER_12_489
*1425 FILLER_12_501
*1426 FILLER_12_513
*1427 FILLER_12_525
*1428 FILLER_12_531
*1429 FILLER_12_533
*1430 FILLER_12_545
*1431 FILLER_12_557
*1432 FILLER_12_569
*1433 FILLER_12_581
*1434 FILLER_12_587
*1435 FILLER_12_589
*1436 FILLER_12_60
*1437 FILLER_12_601
*1438 FILLER_12_613
*1439 FILLER_12_625
*1440 FILLER_12_637
*1441 FILLER_12_643
*1442 FILLER_12_645
*1443 FILLER_12_657
*1444 FILLER_12_669
*1445 FILLER_12_681
*1446 FILLER_12_693
*1447 FILLER_12_699
*1448 FILLER_12_701
*1449 FILLER_12_713
*1450 FILLER_12_725
*1451 FILLER_12_80
*1452 FILLER_12_87
*1453 FILLER_12_93
*1454 FILLER_12_99
*1455 FILLER_13_108
*1456 FILLER_13_115
*1457 FILLER_13_123
*1458 FILLER_13_147
*1459 FILLER_13_15
*1460 FILLER_13_153
*1461 FILLER_13_164
*1462 FILLER_13_171
*1463 FILLER_13_183
*1464 FILLER_13_201
*1465 FILLER_13_211
*1466 FILLER_13_22
*1467 FILLER_13_220
*1468 FILLER_13_228
*1469 FILLER_13_244
*1470 FILLER_13_250
*1471 FILLER_13_262
*1472 FILLER_13_274
*1473 FILLER_13_281
*1474 FILLER_13_293
*1475 FILLER_13_3
*1476 FILLER_13_305
*1477 FILLER_13_317
*1478 FILLER_13_329
*1479 FILLER_13_335
*1480 FILLER_13_337
*1481 FILLER_13_34
*1482 FILLER_13_349
*1483 FILLER_13_361
*1484 FILLER_13_373
*1485 FILLER_13_385
*1486 FILLER_13_391
*1487 FILLER_13_393
*1488 FILLER_13_405
*1489 FILLER_13_417
*1490 FILLER_13_42
*1491 FILLER_13_429
*1492 FILLER_13_441
*1493 FILLER_13_447
*1494 FILLER_13_449
*1495 FILLER_13_461
*1496 FILLER_13_473
*1497 FILLER_13_485
*1498 FILLER_13_49
*1499 FILLER_13_497
*1500 FILLER_13_503
*1501 FILLER_13_505
*1502 FILLER_13_517
*1503 FILLER_13_529
*1504 FILLER_13_541
*1505 FILLER_13_55
*1506 FILLER_13_553
*1507 FILLER_13_559
*1508 FILLER_13_561
*1509 FILLER_13_573
*1510 FILLER_13_585
*1511 FILLER_13_597
*1512 FILLER_13_609
*1513 FILLER_13_615
*1514 FILLER_13_617
*1515 FILLER_13_629
*1516 FILLER_13_63
*1517 FILLER_13_641
*1518 FILLER_13_653
*1519 FILLER_13_665
*1520 FILLER_13_671
*1521 FILLER_13_673
*1522 FILLER_13_685
*1523 FILLER_13_69
*1524 FILLER_13_697
*1525 FILLER_13_709
*1526 FILLER_13_721
*1527 FILLER_13_727
*1528 FILLER_13_729
*1529 FILLER_13_75
*1530 FILLER_13_83
*1531 FILLER_13_91
*1532 FILLER_14_109
*1533 FILLER_14_121
*1534 FILLER_14_133
*1535 FILLER_14_139
*1536 FILLER_14_15
*1537 FILLER_14_157
*1538 FILLER_14_169
*1539 FILLER_14_173
*1540 FILLER_14_190
*1541 FILLER_14_197
*1542 FILLER_14_205
*1543 FILLER_14_216
*1544 FILLER_14_222
*1545 FILLER_14_231
*1546 FILLER_14_240
*1547 FILLER_14_253
*1548 FILLER_14_265
*1549 FILLER_14_27
*1550 FILLER_14_277
*1551 FILLER_14_289
*1552 FILLER_14_29
*1553 FILLER_14_3
*1554 FILLER_14_301
*1555 FILLER_14_307
*1556 FILLER_14_309
*1557 FILLER_14_321
*1558 FILLER_14_333
*1559 FILLER_14_345
*1560 FILLER_14_357
*1561 FILLER_14_363
*1562 FILLER_14_365
*1563 FILLER_14_37
*1564 FILLER_14_377
*1565 FILLER_14_389
*1566 FILLER_14_401
*1567 FILLER_14_41
*1568 FILLER_14_413
*1569 FILLER_14_419
*1570 FILLER_14_421
*1571 FILLER_14_433
*1572 FILLER_14_445
*1573 FILLER_14_457
*1574 FILLER_14_469
*1575 FILLER_14_475
*1576 FILLER_14_477
*1577 FILLER_14_48
*1578 FILLER_14_489
*1579 FILLER_14_501
*1580 FILLER_14_513
*1581 FILLER_14_525
*1582 FILLER_14_531
*1583 FILLER_14_533
*1584 FILLER_14_545
*1585 FILLER_14_557
*1586 FILLER_14_569
*1587 FILLER_14_581
*1588 FILLER_14_587
*1589 FILLER_14_589
*1590 FILLER_14_60
*1591 FILLER_14_601
*1592 FILLER_14_613
*1593 FILLER_14_625
*1594 FILLER_14_637
*1595 FILLER_14_643
*1596 FILLER_14_645
*1597 FILLER_14_657
*1598 FILLER_14_669
*1599 FILLER_14_681
*1600 FILLER_14_693
*1601 FILLER_14_699
*1602 FILLER_14_701
*1603 FILLER_14_713
*1604 FILLER_14_725
*1605 FILLER_14_80
*1606 FILLER_14_85
*1607 FILLER_14_97
*1608 FILLER_15_108
*1609 FILLER_15_113
*1610 FILLER_15_125
*1611 FILLER_15_149
*1612 FILLER_15_15
*1613 FILLER_15_155
*1614 FILLER_15_167
*1615 FILLER_15_169
*1616 FILLER_15_181
*1617 FILLER_15_185
*1618 FILLER_15_202
*1619 FILLER_15_218
*1620 FILLER_15_230
*1621 FILLER_15_242
*1622 FILLER_15_248
*1623 FILLER_15_260
*1624 FILLER_15_27
*1625 FILLER_15_272
*1626 FILLER_15_281
*1627 FILLER_15_293
*1628 FILLER_15_3
*1629 FILLER_15_305
*1630 FILLER_15_317
*1631 FILLER_15_329
*1632 FILLER_15_335
*1633 FILLER_15_337
*1634 FILLER_15_349
*1635 FILLER_15_361
*1636 FILLER_15_37
*1637 FILLER_15_373
*1638 FILLER_15_385
*1639 FILLER_15_391
*1640 FILLER_15_393
*1641 FILLER_15_405
*1642 FILLER_15_417
*1643 FILLER_15_429
*1644 FILLER_15_441
*1645 FILLER_15_447
*1646 FILLER_15_449
*1647 FILLER_15_461
*1648 FILLER_15_473
*1649 FILLER_15_485
*1650 FILLER_15_49
*1651 FILLER_15_497
*1652 FILLER_15_503
*1653 FILLER_15_505
*1654 FILLER_15_517
*1655 FILLER_15_529
*1656 FILLER_15_541
*1657 FILLER_15_55
*1658 FILLER_15_553
*1659 FILLER_15_559
*1660 FILLER_15_561
*1661 FILLER_15_573
*1662 FILLER_15_585
*1663 FILLER_15_597
*1664 FILLER_15_609
*1665 FILLER_15_615
*1666 FILLER_15_617
*1667 FILLER_15_629
*1668 FILLER_15_641
*1669 FILLER_15_65
*1670 FILLER_15_653
*1671 FILLER_15_665
*1672 FILLER_15_671
*1673 FILLER_15_673
*1674 FILLER_15_685
*1675 FILLER_15_697
*1676 FILLER_15_709
*1677 FILLER_15_71
*1678 FILLER_15_721
*1679 FILLER_15_727
*1680 FILLER_15_729
*1681 FILLER_15_88
*1682 FILLER_16_116
*1683 FILLER_16_136
*1684 FILLER_16_141
*1685 FILLER_16_15
*1686 FILLER_16_153
*1687 FILLER_16_157
*1688 FILLER_16_174
*1689 FILLER_16_186
*1690 FILLER_16_194
*1691 FILLER_16_197