*SPEF "ieee 1481-1999"
*DESIGN "pixel_macro"
*DATE "11:11:11 Fri 11 11, 1111"
*VENDOR "OpenRCX"
*PROGRAM "Parallel Extraction"
*VERSION "1.0"
*DESIGN_FLOW "NAME_SCOPE LOCAL" "PIN_CAP NONE"
*DIVIDER /
*DELIMITER :
*BUS_DELIMITER []
*T_UNIT 1 NS
*C_UNIT 1 PF
*R_UNIT 1 OHM
*L_UNIT 1 HENRY

*NAME_MAP
*1 io_in[0]
*2 io_in[10]
*3 io_in[11]
*4 io_in[12]
*5 io_in[13]
*6 io_in[14]
*7 io_in[15]
*8 io_in[16]
*9 io_in[17]
*10 io_in[18]
*11 io_in[19]
*12 io_in[1]
*13 io_in[20]
*14 io_in[21]
*15 io_in[22]
*16 io_in[23]
*17 io_in[24]
*18 io_in[25]
*19 io_in[26]
*20 io_in[27]
*21 io_in[28]
*22 io_in[29]
*23 io_in[2]
*24 io_in[30]
*25 io_in[31]
*26 io_in[32]
*27 io_in[33]
*28 io_in[34]
*29 io_in[35]
*30 io_in[36]
*31 io_in[37]
*32 io_in[3]
*33 io_in[4]
*34 io_in[5]
*35 io_in[6]
*36 io_in[7]
*37 io_in[8]
*38 io_in[9]
*39 net232
*40 net242
*41 net243
*42 net244
*43 net245
*44 net246
*45 net247
*46 net248
*47 net249
*48 net250
*49 net251
*50 net233
*51 net252
*52 net253
*53 net254
*54 net255
*55 net256
*56 net257
*57 net258
*58 net259
*59 net260
*60 net261
*61 net234
*62 net262
*63 net263
*64 net264
*65 net265
*66 net266
*67 net267
*68 net268
*69 net269
*70 net235
*71 net236
*72 net237
*73 net238
*74 net239
*75 net240
*76 net241
*77 net194
*78 net204
*79 net205
*80 net206
*81 net207
*82 net208
*83 net209
*84 net210
*85 net211
*86 net212
*87 net213
*88 net195
*89 net214
*90 net215
*91 net216
*92 net217
*93 net218
*94 net219
*95 net220
*96 net221
*97 net222
*98 net223
*99 net196
*100 net224
*101 net225
*102 net226
*103 net227
*104 net228
*105 net229
*106 net230
*107 net231
*108 net197
*109 net198
*110 net199
*111 net200
*112 net201
*113 net202
*114 net203
*115 net191
*116 net192
*117 net193
*118 la_data_in[0]
*119 la_data_in[100]
*120 la_data_in[101]
*121 la_data_in[102]
*122 la_data_in[103]
*123 la_data_in[104]
*124 la_data_in[105]
*125 la_data_in[106]
*126 la_data_in[107]
*127 la_data_in[108]
*128 la_data_in[109]
*129 la_data_in[10]
*130 la_data_in[110]
*131 la_data_in[111]
*132 la_data_in[112]
*133 la_data_in[113]
*134 la_data_in[114]
*135 la_data_in[115]
*136 la_data_in[116]
*137 la_data_in[117]
*138 la_data_in[118]
*139 la_data_in[119]
*140 la_data_in[11]
*141 la_data_in[120]
*142 la_data_in[121]
*143 la_data_in[122]
*144 la_data_in[123]
*145 la_data_in[124]
*146 la_data_in[125]
*147 la_data_in[126]
*148 la_data_in[127]
*149 la_data_in[12]
*150 la_data_in[13]
*151 la_data_in[14]
*152 la_data_in[15]
*153 la_data_in[16]
*154 la_data_in[17]
*155 la_data_in[18]
*156 la_data_in[19]
*157 la_data_in[1]
*158 la_data_in[20]
*159 la_data_in[21]
*160 la_data_in[22]
*161 la_data_in[23]
*162 la_data_in[24]
*163 la_data_in[25]
*164 la_data_in[26]
*165 la_data_in[27]
*166 la_data_in[28]
*167 la_data_in[29]
*168 la_data_in[2]
*169 la_data_in[30]
*170 la_data_in[31]
*171 la_data_in[32]
*172 la_data_in[33]
*173 la_data_in[34]
*174 la_data_in[35]
*175 la_data_in[36]
*176 la_data_in[37]
*177 la_data_in[38]
*178 la_data_in[39]
*179 la_data_in[3]
*180 la_data_in[40]
*181 la_data_in[41]
*182 la_data_in[42]
*183 la_data_in[43]
*184 la_data_in[44]
*185 la_data_in[45]
*186 la_data_in[46]
*187 la_data_in[47]
*188 la_data_in[48]
*189 la_data_in[49]
*190 la_data_in[4]
*191 la_data_in[50]
*192 la_data_in[51]
*193 la_data_in[52]
*194 la_data_in[53]
*195 la_data_in[54]
*196 la_data_in[55]
*197 la_data_in[56]
*198 la_data_in[57]
*199 la_data_in[58]
*200 la_data_in[59]
*201 la_data_in[5]
*202 la_data_in[60]
*203 la_data_in[61]
*204 la_data_in[62]
*205 la_data_in[63]
*206 la_data_in[64]
*207 la_data_in[65]
*208 la_data_in[66]
*209 la_data_in[67]
*210 la_data_in[68]
*211 la_data_in[69]
*212 la_data_in[6]
*213 la_data_in[70]
*214 la_data_in[71]
*215 la_data_in[72]
*216 la_data_in[73]
*217 la_data_in[74]
*218 la_data_in[75]
*219 la_data_in[76]
*220 la_data_in[77]
*221 la_data_in[78]
*222 la_data_in[79]
*223 la_data_in[7]
*224 la_data_in[80]
*225 la_data_in[81]
*226 la_data_in[82]
*227 la_data_in[83]
*228 la_data_in[84]
*229 la_data_in[85]
*230 la_data_in[86]
*231 la_data_in[87]
*232 la_data_in[88]
*233 la_data_in[89]
*234 la_data_in[8]
*235 la_data_in[90]
*236 la_data_in[91]
*237 la_data_in[92]
*238 la_data_in[93]
*239 la_data_in[94]
*240 la_data_in[95]
*241 la_data_in[96]
*242 la_data_in[97]
*243 la_data_in[98]
*244 la_data_in[99]
*245 la_data_in[9]
*246 la_data_out[0]
*247 net163
*248 net164
*249 net165
*250 net166
*251 net167
*252 net168
*253 net169
*254 net170
*255 net171
*256 net172
*257 la_data_out[10]
*258 net173
*259 net174
*260 net175
*261 net176
*262 net177
*263 net178
*264 net179
*265 net180
*266 net181
*267 net182
*268 la_data_out[11]
*269 net183
*270 net184
*271 net185
*272 net186
*273 net187
*274 net188
*275 net189
*276 net190
*277 la_data_out[12]
*278 la_data_out[13]
*279 la_data_out[14]
*280 la_data_out[15]
*281 la_data_out[16]
*282 la_data_out[17]
*283 la_data_out[18]
*284 la_data_out[19]
*285 la_data_out[1]
*286 la_data_out[20]
*287 la_data_out[21]
*288 net85
*289 net86
*290 net87
*291 net88
*292 net89
*293 net90
*294 net91
*295 net92
*296 la_data_out[2]
*297 net93
*298 net94
*299 net95
*300 net96
*301 net97
*302 net98
*303 net99
*304 net100
*305 net101
*306 net102
*307 la_data_out[3]
*308 net103
*309 net104
*310 net105
*311 net106
*312 net107
*313 net108
*314 net109
*315 net110
*316 net111
*317 net112
*318 net81
*319 net113
*320 net114
*321 net115
*322 net116
*323 net117
*324 net118
*325 net119
*326 net120
*327 net121
*328 net122
*329 net82
*330 net123
*331 net124
*332 net125
*333 net126
*334 net127
*335 net128
*336 net129
*337 net130
*338 net131
*339 net132
*340 net83
*341 net133
*342 net134
*343 net135
*344 net136
*345 net137
*346 net138
*347 net139
*348 net140
*349 net141
*350 net142
*351 net84
*352 net143
*353 net144
*354 net145
*355 net146
*356 net147
*357 net148
*358 net149
*359 net150
*360 net151
*361 net152
*362 la_data_out[8]
*363 net153
*364 net154
*365 net155
*366 net156
*367 net157
*368 net158
*369 net159
*370 net160
*371 net161
*372 net162
*373 la_data_out[9]
*374 la_oenb[0]
*375 la_oenb[100]
*376 la_oenb[101]
*377 la_oenb[102]
*378 la_oenb[103]
*379 la_oenb[104]
*380 la_oenb[105]
*381 la_oenb[106]
*382 la_oenb[107]
*383 la_oenb[108]
*384 la_oenb[109]
*385 la_oenb[10]
*386 la_oenb[110]
*387 la_oenb[111]
*388 la_oenb[112]
*389 la_oenb[113]
*390 la_oenb[114]
*391 la_oenb[115]
*392 la_oenb[116]
*393 la_oenb[117]
*394 la_oenb[118]
*395 la_oenb[119]
*396 la_oenb[11]
*397 la_oenb[120]
*398 la_oenb[121]
*399 la_oenb[122]
*400 la_oenb[123]
*401 la_oenb[124]
*402 la_oenb[125]
*403 la_oenb[126]
*404 la_oenb[127]
*405 la_oenb[12]
*406 la_oenb[13]
*407 la_oenb[14]
*408 la_oenb[15]
*409 la_oenb[16]
*410 la_oenb[17]
*411 la_oenb[18]
*412 la_oenb[19]
*413 la_oenb[1]
*414 la_oenb[20]
*415 la_oenb[21]
*416 la_oenb[22]
*417 la_oenb[23]
*418 la_oenb[24]
*419 la_oenb[25]
*420 la_oenb[26]
*421 la_oenb[27]
*422 la_oenb[28]
*423 la_oenb[29]
*424 la_oenb[2]
*425 la_oenb[30]
*426 la_oenb[31]
*427 la_oenb[32]
*428 la_oenb[33]
*429 la_oenb[34]
*430 la_oenb[35]
*431 la_oenb[36]
*432 la_oenb[37]
*433 la_oenb[38]
*434 la_oenb[39]
*435 la_oenb[3]
*436 la_oenb[40]
*437 la_oenb[41]
*438 la_oenb[42]
*439 la_oenb[43]
*440 la_oenb[44]
*441 la_oenb[45]
*442 la_oenb[46]
*443 la_oenb[47]
*444 la_oenb[48]
*445 la_oenb[49]
*446 la_oenb[4]
*447 la_oenb[50]
*448 la_oenb[51]
*449 la_oenb[52]
*450 la_oenb[53]
*451 la_oenb[54]
*452 la_oenb[55]
*453 la_oenb[56]
*454 la_oenb[57]
*455 la_oenb[58]
*456 la_oenb[59]
*457 la_oenb[5]
*458 la_oenb[60]
*459 la_oenb[61]
*460 la_oenb[62]
*461 la_oenb[63]
*462 la_oenb[64]
*463 la_oenb[65]
*464 la_oenb[66]
*465 la_oenb[67]
*466 la_oenb[68]
*467 la_oenb[69]
*468 la_oenb[6]
*469 la_oenb[70]
*470 la_oenb[71]
*471 la_oenb[72]
*472 la_oenb[73]
*473 la_oenb[74]
*474 la_oenb[75]
*475 la_oenb[76]
*476 la_oenb[77]
*477 la_oenb[78]
*478 la_oenb[79]
*479 la_oenb[7]
*480 la_oenb[80]
*481 la_oenb[81]
*482 la_oenb[82]
*483 la_oenb[83]
*484 la_oenb[84]
*485 la_oenb[85]
*486 la_oenb[86]
*487 la_oenb[87]
*488 la_oenb[88]
*489 la_oenb[89]
*490 la_oenb[8]
*491 la_oenb[90]
*492 la_oenb[91]
*493 la_oenb[92]
*494 la_oenb[93]
*495 la_oenb[94]
*496 la_oenb[95]
*497 la_oenb[96]
*498 la_oenb[97]
*499 la_oenb[98]
*500 la_oenb[99]
*501 la_oenb[9]
*502 net270
*503 pxl_start_in_path
*504 pxl_start_out_path
*507 wb_clk_i
*508 wb_rst_i
*509 net271
*510 wbs_adr_i[0]
*511 wbs_adr_i[10]
*512 wbs_adr_i[11]
*513 wbs_adr_i[12]
*514 wbs_adr_i[13]
*515 wbs_adr_i[14]
*516 wbs_adr_i[15]
*517 wbs_adr_i[16]
*518 wbs_adr_i[17]
*519 wbs_adr_i[18]
*520 wbs_adr_i[19]
*521 wbs_adr_i[1]
*522 wbs_adr_i[20]
*523 wbs_adr_i[21]
*524 wbs_adr_i[22]
*525 wbs_adr_i[23]
*526 wbs_adr_i[24]
*527 wbs_adr_i[25]
*528 wbs_adr_i[26]
*529 wbs_adr_i[27]
*530 wbs_adr_i[28]
*531 wbs_adr_i[29]
*532 wbs_adr_i[2]
*533 wbs_adr_i[30]
*534 wbs_adr_i[31]
*535 wbs_adr_i[3]
*536 wbs_adr_i[4]
*537 wbs_adr_i[5]
*538 wbs_adr_i[6]
*539 wbs_adr_i[7]
*540 wbs_adr_i[8]
*541 wbs_adr_i[9]
*542 wbs_cyc_i
*543 wbs_dat_i[0]
*544 wbs_dat_i[10]
*545 wbs_dat_i[11]
*546 wbs_dat_i[12]
*547 wbs_dat_i[13]
*548 wbs_dat_i[14]
*549 wbs_dat_i[15]
*550 wbs_dat_i[16]
*551 wbs_dat_i[17]
*552 wbs_dat_i[18]
*553 wbs_dat_i[19]
*554 wbs_dat_i[1]
*555 wbs_dat_i[20]
*556 wbs_dat_i[21]
*557 wbs_dat_i[22]
*558 wbs_dat_i[23]
*559 wbs_dat_i[24]
*560 wbs_dat_i[25]
*561 wbs_dat_i[26]
*562 wbs_dat_i[27]
*563 wbs_dat_i[28]
*564 wbs_dat_i[29]
*565 wbs_dat_i[2]
*566 wbs_dat_i[30]
*567 wbs_dat_i[31]
*568 wbs_dat_i[3]
*569 wbs_dat_i[4]
*570 wbs_dat_i[5]
*571 wbs_dat_i[6]
*572 wbs_dat_i[7]
*573 wbs_dat_i[8]
*574 wbs_dat_i[9]
*575 wbs_dat_o[0]
*576 wbs_dat_o[10]
*577 wbs_dat_o[11]
*578 wbs_dat_o[12]
*579 wbs_dat_o[13]
*580 wbs_dat_o[14]
*581 wbs_dat_o[15]
*582 wbs_dat_o[16]
*583 wbs_dat_o[17]
*584 wbs_dat_o[18]
*585 wbs_dat_o[19]
*586 wbs_dat_o[1]
*587 wbs_dat_o[20]
*588 wbs_dat_o[21]
*589 wbs_dat_o[22]
*590 wbs_dat_o[23]
*591 wbs_dat_o[24]
*592 net272
*593 net273
*594 net274
*595 net275
*596 net276
*597 wbs_dat_o[2]
*598 net277
*599 net278
*600 wbs_dat_o[3]
*601 wbs_dat_o[4]
*602 wbs_dat_o[5]
*603 wbs_dat_o[6]
*604 wbs_dat_o[7]
*605 wbs_dat_o[8]
*606 wbs_dat_o[9]
*607 wbs_sel_i[0]
*608 wbs_sel_i[1]
*609 wbs_sel_i[2]
*610 wbs_sel_i[3]
*611 wbs_stb_i
*612 wbs_we_i
*613 _000_
*614 _001_
*615 _002_
*616 _003_
*617 _004_
*618 _005_
*619 _006_
*620 _007_
*621 _008_
*622 _009_
*623 _010_
*624 _011_
*625 _012_
*626 _013_
*627 _014_
*628 _015_
*629 _016_
*630 _017_
*631 _018_
*632 _019_
*633 _020_
*634 _021_
*635 _022_
*636 _023_
*637 _024_
*638 _025_
*639 _026_
*640 _027_
*641 _028_
*642 _029_
*643 _030_
*644 _031_
*645 _032_
*646 _033_
*647 _034_
*648 _035_
*649 _036_
*650 _037_
*651 _038_
*652 _039_
*653 _040_
*654 _041_
*655 _042_
*656 _043_
*657 _044_
*658 _045_
*659 _046_
*660 _047_
*661 _048_
*662 _049_
*663 _050_
*664 _051_
*665 _052_
*666 _053_
*667 _054_
*668 _055_
*669 _056_
*670 _057_
*671 _058_
*672 _059_
*673 _060_
*674 _061_
*675 _062_
*676 _063_
*677 _064_
*678 _065_
*679 _066_
*680 _067_
*681 _068_
*682 _069_
*683 _070_
*684 _071_
*685 _072_
*686 _073_
*687 _074_
*688 _075_
*689 _076_
*690 _077_
*691 _078_
*692 _079_
*693 _080_
*694 _081_
*695 _082_
*696 _083_
*697 _084_
*698 _085_
*699 _086_
*700 _087_
*701 _088_
*702 _089_
*703 _090_
*704 _091_
*705 _092_
*706 _093_
*707 _094_
*708 _095_
*709 _096_
*710 _097_
*711 _098_
*712 _099_
*713 _100_
*714 _101_
*715 _102_
*716 _103_
*717 _104_
*718 _105_
*719 _106_
*720 _107_
*721 _108_
*722 _109_
*723 _110_
*724 _111_
*725 _112_
*726 _113_
*727 _114_
*728 _115_
*729 _116_
*730 _117_
*731 _118_
*732 _119_
*733 _120_
*734 _121_
*735 _122_
*736 _123_
*737 _124_
*738 _125_
*739 _126_
*740 _127_
*741 _128_
*742 _129_
*743 _130_
*744 _131_
*745 _132_
*746 _133_
*747 _134_
*748 _135_
*749 _136_
*750 _137_
*751 _138_
*752 _139_
*753 _140_
*754 _141_
*755 _142_
*756 _143_
*757 _144_
*758 _145_
*759 _146_
*760 _147_
*761 _148_
*762 _149_
*763 _150_
*764 _151_
*765 _152_
*766 _153_
*767 _154_
*768 _155_
*769 _156_
*770 _157_
*771 _158_
*772 _159_
*773 _160_
*774 _161_
*775 _162_
*776 _163_
*777 _164_
*778 _165_
*779 _166_
*780 _167_
*781 _168_
*782 _169_
*783 _170_
*784 _171_
*785 _172_
*786 _173_
*787 _174_
*788 _175_
*789 _176_
*790 _177_
*791 _178_
*792 _179_
*793 _180_
*794 _181_
*795 _182_
*796 _183_
*797 _184_
*798 _185_
*799 _186_
*800 _187_
*801 _188_
*802 _189_
*803 _190_
*804 _191_
*805 _192_
*806 _193_
*807 _194_
*808 _195_
*809 _196_
*810 _197_
*811 _198_
*812 _199_
*813 _200_
*814 _201_
*815 _202_
*816 _203_
*817 _204_
*818 _205_
*819 _206_
*820 _207_
*821 _208_
*822 clknet_0_wb_clk_i
*823 clknet_3_0__leaf_wb_clk_i
*824 clknet_3_1__leaf_wb_clk_i
*825 clknet_3_2__leaf_wb_clk_i
*826 clknet_3_3__leaf_wb_clk_i
*827 clknet_3_4__leaf_wb_clk_i
*828 clknet_3_5__leaf_wb_clk_i
*829 clknet_3_6__leaf_wb_clk_i
*830 clknet_3_7__leaf_wb_clk_i
*831 net1
*832 net10
*833 net11
*834 net12
*835 net13
*836 net14
*837 net15
*838 net16
*839 net17
*840 net18
*841 net19
*842 net2
*843 net20
*844 net21
*845 net22
*846 net23
*847 net24
*848 net25
*849 net26
*850 net27
*851 net28
*852 net29
*853 net3
*854 net30
*855 net31
*856 net32
*857 net33
*858 net34
*859 net35
*860 net36
*861 net37
*862 net38
*863 net39
*864 net4
*865 net40
*866 net41
*867 net42
*868 net43
*869 net44
*870 net45
*871 net46
*872 net47
*873 net48
*874 net49
*875 net5
*876 net50
*877 net51
*878 net52
*879 net53
*880 net54
*881 net55
*882 net56
*883 net57
*884 net58
*885 net59
*886 net6
*887 net60
*888 net61
*889 net62
*890 net63
*891 net64
*892 net65
*893 net66
*894 net67
*895 net68
*896 net69
*897 net7
*898 net70
*899 net71
*900 net72
*901 net73
*902 net74
*903 net75
*904 net76
*905 net77
*906 net78
*907 net79
*908 net8
*909 net80
*910 net9
*911 pixel_fsm0\.adj_max_clk\[0\]
*912 pixel_fsm0\.adj_max_clk\[1\]
*913 pixel_fsm0\.adj_max_clk\[2\]
*914 pixel_fsm0\.adj_max_clk\[3\]
*915 pixel_fsm0\.adj_max_clk\[4\]
*916 pixel_fsm0\.adj_max_clk\[5\]
*917 pixel_fsm0\.adj_max_clk\[6\]
*918 pixel_fsm0\.adj_max_clk\[7\]
*919 pixel_fsm0\.adj_max_clk\[8\]
*920 pixel_fsm0\.adj_max_clk\[9\]
*921 pixel_fsm0\.adj_timer_m_i
*922 pixel_fsm0\.data_in
*923 pixel_fsm0\.inst1\.next_state\[0\]
*924 pixel_fsm0\.inst1\.next_state\[1\]
*925 pixel_fsm0\.inst1\.next_state\[2\]
*926 pixel_fsm0\.inst1\.pxl_start_i
*927 pixel_fsm0\.inst1\.state\[0\]
*928 pixel_fsm0\.inst1\.state\[1\]
*929 pixel_fsm0\.inst1\.state\[2\]
*930 pixel_fsm0\.inst2\.loc_max_clk\[0\]
*931 pixel_fsm0\.inst2\.loc_max_clk\[1\]
*932 pixel_fsm0\.inst2\.loc_max_clk\[2\]
*933 pixel_fsm0\.inst2\.loc_max_clk\[3\]
*934 pixel_fsm0\.inst2\.loc_max_clk\[4\]
*935 pixel_fsm0\.inst2\.loc_max_clk\[5\]
*936 pixel_fsm0\.inst2\.loc_max_clk\[6\]
*937 pixel_fsm0\.inst2\.loc_max_clk\[7\]
*938 pixel_fsm0\.inst2\.loc_max_clk\[8\]
*939 pixel_fsm0\.inst2\.loc_max_clk\[9\]
*940 pixel_fsm0\.inst4\.pixel_count_max
*941 pixel_fsm0\.loc_timer_m_i
*942 pixel_fsm0\.pxl_done_i
*943 ANTENNA__250__B1
*944 ANTENNA__252__A2
*945 ANTENNA__270__A
*946 ANTENNA__272__A1
*947 ANTENNA__272__C1
*948 ANTENNA__274__C1
*949 ANTENNA__276__C1
*950 ANTENNA__278__C1
*951 ANTENNA__281__A
*952 ANTENNA__296__A
*953 ANTENNA__308__A
*954 ANTENNA__311__A
*955 ANTENNA__326__A
*956 ANTENNA__343__C1
*957 ANTENNA__344__A
*958 ANTENNA__350__A
*959 ANTENNA__355__A
*960 ANTENNA__356__C1
*961 ANTENNA__358__C1
*962 ANTENNA__360__C1
*963 ANTENNA__362__C1
*964 ANTENNA__420__C1
*965 ANTENNA__446__SET_B
*966 ANTENNA_clkbuf_0_wb_clk_i_A
*967 ANTENNA_clkbuf_3_0__f_wb_clk_i_A
*968 ANTENNA_clkbuf_3_1__f_wb_clk_i_A
*969 ANTENNA_clkbuf_3_2__f_wb_clk_i_A
*970 ANTENNA_clkbuf_3_3__f_wb_clk_i_A
*971 ANTENNA_clkbuf_3_4__f_wb_clk_i_A
*972 ANTENNA_clkbuf_3_5__f_wb_clk_i_A
*973 ANTENNA_clkbuf_3_6__f_wb_clk_i_A
*974 ANTENNA_clkbuf_3_7__f_wb_clk_i_A
*975 ANTENNA_input10_A
*976 ANTENNA_input11_A
*977 ANTENNA_input12_A
*978 ANTENNA_input13_A
*979 ANTENNA_input14_A
*980 ANTENNA_input15_A
*981 ANTENNA_input16_A
*982 ANTENNA_input17_A
*983 ANTENNA_input18_A
*984 ANTENNA_input19_A
*985 ANTENNA_input1_A
*986 ANTENNA_input20_A
*987 ANTENNA_input21_A
*988 ANTENNA_input22_A
*989 ANTENNA_input23_A
*990 ANTENNA_input24_A
*991 ANTENNA_input25_A
*992 ANTENNA_input26_A
*993 ANTENNA_input27_A
*994 ANTENNA_input28_A
*995 ANTENNA_input29_A
*996 ANTENNA_input2_A
*997 ANTENNA_input30_A
*998 ANTENNA_input31_A
*999 ANTENNA_input32_A
*1000 ANTENNA_input33_A
*1001 ANTENNA_input34_A
*1002 ANTENNA_input3_A
*1003 ANTENNA_input4_A
*1004 ANTENNA_input5_A
*1005 ANTENNA_input6_A
*1006 ANTENNA_input7_A
*1007 ANTENNA_input8_A
*1008 ANTENNA_input9_A
*1009 ANTENNA_output45_A
*1010 FILLER_0_10
*1011 FILLER_0_101
*1012 FILLER_0_108
*1013 FILLER_0_113
*1014 FILLER_0_120
*1015 FILLER_0_128
*1016 FILLER_0_136
*1017 FILLER_0_141
*1018 FILLER_0_148
*1019 FILLER_0_156
*1020 FILLER_0_164
*1021 FILLER_0_169
*1022 FILLER_0_17
*1023 FILLER_0_179
*1024 FILLER_0_183
*1025 FILLER_0_190
*1026 FILLER_0_197
*1027 FILLER_0_203
*1028 FILLER_0_211
*1029 FILLER_0_215
*1030 FILLER_0_220
*1031 FILLER_0_225
*1032 FILLER_0_232
*1033 FILLER_0_24
*1034 FILLER_0_240
*1035 FILLER_0_248
*1036 FILLER_0_253
*1037 FILLER_0_260
*1038 FILLER_0_268
*1039 FILLER_0_276
*1040 FILLER_0_281
*1041 FILLER_0_289
*1042 FILLER_0_29
*1043 FILLER_0_297
*1044 FILLER_0_3
*1045 FILLER_0_304
*1046 FILLER_0_309
*1047 FILLER_0_318
*1048 FILLER_0_325
*1049 FILLER_0_332
*1050 FILLER_0_337
*1051 FILLER_0_346
*1052 FILLER_0_35
*1053 FILLER_0_353
*1054 FILLER_0_360
*1055 FILLER_0_365
*1056 FILLER_0_369
*1057 FILLER_0_376
*1058 FILLER_0_383
*1059 FILLER_0_391
*1060 FILLER_0_396
*1061 FILLER_0_403
*1062 FILLER_0_410
*1063 FILLER_0_418
*1064 FILLER_0_424
*1065 FILLER_0_431
*1066 FILLER_0_438
*1067 FILLER_0_446
*1068 FILLER_0_452
*1069 FILLER_0_459
*1070 FILLER_0_466
*1071 FILLER_0_47
*1072 FILLER_0_474
*1073 FILLER_0_480
*1074 FILLER_0_487
*1075 FILLER_0_494
*1076 FILLER_0_502
*1077 FILLER_0_508
*1078 FILLER_0_515
*1079 FILLER_0_522
*1080 FILLER_0_530
*1081 FILLER_0_536
*1082 FILLER_0_543
*1083 FILLER_0_55
*1084 FILLER_0_550
*1085 FILLER_0_558
*1086 FILLER_0_564
*1087 FILLER_0_571
*1088 FILLER_0_578
*1089 FILLER_0_586
*1090 FILLER_0_592
*1091 FILLER_0_599
*1092 FILLER_0_606
*1093 FILLER_0_614
*1094 FILLER_0_620
*1095 FILLER_0_627
*1096 FILLER_0_634
*1097 FILLER_0_642
*1098 FILLER_0_645
*1099 FILLER_0_65
*1100 FILLER_0_657
*1101 FILLER_0_669
*1102 FILLER_0_673
*1103 FILLER_0_685
*1104 FILLER_0_697
*1105 FILLER_0_7
*1106 FILLER_0_701
*1107 FILLER_0_713
*1108 FILLER_0_72
*1109 FILLER_0_725
*1110 FILLER_0_729
*1111 FILLER_0_80
*1112 FILLER_100_109
*1113 FILLER_100_121
*1114 FILLER_100_133
*1115 FILLER_100_139
*1116 FILLER_100_141
*1117 FILLER_100_15
*1118 FILLER_100_153
*1119 FILLER_100_165
*1120 FILLER_100_177
*1121 FILLER_100_189
*1122 FILLER_100_195
*1123 FILLER_100_197
*1124 FILLER_100_209
*1125 FILLER_100_221
*1126 FILLER_100_228
*1127 FILLER_100_240
*1128 FILLER_100_253
*1129 FILLER_100_265
*1130 FILLER_100_27
*1131 FILLER_100_277
*1132 FILLER_100_282
*1133 FILLER_100_29
*1134 FILLER_100_294
*1135 FILLER_100_3
*1136 FILLER_100_306
*1137 FILLER_100_309
*1138 FILLER_100_321
*1139 FILLER_100_333
*1140 FILLER_100_345
*1141 FILLER_100_357
*1142 FILLER_100_363
*1143 FILLER_100_365
*1144 FILLER_100_377
*1145 FILLER_100_389
*1146 FILLER_100_401
*1147 FILLER_100_409
*1148 FILLER_100_41
*1149 FILLER_100_414
*1150 FILLER_100_421
*1151 FILLER_100_433
*1152 FILLER_100_445
*1153 FILLER_100_457
*1154 FILLER_100_469
*1155 FILLER_100_475
*1156 FILLER_100_477
*1157 FILLER_100_489
*1158 FILLER_100_501
*1159 FILLER_100_513
*1160 FILLER_100_525
*1161 FILLER_100_53
*1162 FILLER_100_531
*1163 FILLER_100_533
*1164 FILLER_100_545
*1165 FILLER_100_557
*1166 FILLER_100_569
*1167 FILLER_100_581
*1168 FILLER_100_587
*1169 FILLER_100_589
*1170 FILLER_100_601
*1171 FILLER_100_613
*1172 FILLER_100_625
*1173 FILLER_100_637
*1174 FILLER_100_643
*1175 FILLER_100_645
*1176 FILLER_100_65
*1177 FILLER_100_657
*1178 FILLER_100_666
*1179 FILLER_100_678
*1180 FILLER_100_690
*1181 FILLER_100_698
*1182 FILLER_100_701
*1183 FILLER_100_713
*1184 FILLER_100_725
*1185 FILLER_100_77
*1186 FILLER_100_83
*1187 FILLER_100_85
*1188 FILLER_100_97
*1189 FILLER_101_101
*1190 FILLER_101_108
*1191 FILLER_101_113
*1192 FILLER_101_119
*1193 FILLER_101_126
*1194 FILLER_101_132
*1195 FILLER_101_136
*1196 FILLER_101_144
*1197 FILLER_101_15
*1198 FILLER_101_155
*1199 FILLER_101_162
*1200 FILLER_101_169
*1201 FILLER_101_173
*1202 FILLER_101_180
*1203 FILLER_101_188
*1204 FILLER_101_192
*1205 FILLER_101_200
*1206 FILLER_101_209
*1207 FILLER_101_216
*1208 FILLER_101_225
*1209 FILLER_101_234
*1210 FILLER_101_24
*1211 FILLER_101_242
*1212 FILLER_101_246
*1213 FILLER_101_256
*1214 FILLER_101_263
*1215 FILLER_101_270
*1216 FILLER_101_278
*1217 FILLER_101_281
*1218 FILLER_101_288
*1219 FILLER_101_29
*1220 FILLER_101_297
*1221 FILLER_101_3
*1222 FILLER_101_304
*1223 FILLER_101_309
*1224 FILLER_101_313
*1225 FILLER_101_317
*1226 FILLER_101_324
*1227 FILLER_101_328
*1228 FILLER_101_332
*1229 FILLER_101_337
*1230 FILLER_101_342
*1231 FILLER_101_353
*1232 FILLER_101_36
*1233 FILLER_101_360
*1234 FILLER_101_365
*1235 FILLER_101_371
*1236 FILLER_101_378
*1237 FILLER_101_390
*1238 FILLER_101_396
*1239 FILLER_101_403
*1240 FILLER_101_410
*1241 FILLER_101_418
*1242 FILLER_101_421
*1243 FILLER_101_426
*1244 FILLER_101_433
*1245 FILLER_101_444
*1246 FILLER_101_45
*1247 FILLER_101_452
*1248 FILLER_101_458
*1249 FILLER_101_462
*1250 FILLER_101_469
*1251 FILLER_101_475
*1252 FILLER_101_480
*1253 FILLER_101_487
*1254 FILLER_101_498
*1255 FILLER_101_508
*1256 FILLER_101_512
*1257 FILLER_101_516
*1258 FILLER_101_52
*1259 FILLER_101_523
*1260 FILLER_101_531
*1261 FILLER_101_536
*1262 FILLER_101_543
*1263 FILLER_101_552
*1264 FILLER_101_564
*1265 FILLER_101_57
*1266 FILLER_101_571
*1267 FILLER_101_578
*1268 FILLER_101_586
*1269 FILLER_101_592
*1270 FILLER_101_599
*1271 FILLER_101_606
*1272 FILLER_101_61
*1273 FILLER_101_614
*1274 FILLER_101_620
*1275 FILLER_101_627
*1276 FILLER_101_634
*1277 FILLER_101_642
*1278 FILLER_101_648
*1279 FILLER_101_65
*1280 FILLER_101_655
*1281 FILLER_101_662
*1282 FILLER_101_670
*1283 FILLER_101_673
*1284 FILLER_101_678
*1285 FILLER_101_685
*1286 FILLER_101_696
*1287 FILLER_101_704
*1288 FILLER_101_716
*1289 FILLER_101_72
*1290 FILLER_101_720
*1291 FILLER_101_729
*1292 FILLER_101_76
*1293 FILLER_101_80
*1294 FILLER_101_85
*1295 FILLER_101_90
*1296 FILLER_10_121
*1297 FILLER_10_134
*1298 FILLER_10_141
*1299 FILLER_10_149
*1300 FILLER_10_15
*1301 FILLER_10_158
*1302 FILLER_10_182
*1303 FILLER_10_191
*1304 FILLER_10_195
*1305 FILLER_10_197
*1306 FILLER_10_203
*1307 FILLER_10_210
*1308 FILLER_10_234
*1309 FILLER_10_240
*1310 FILLER_10_246
*1311 FILLER_10_253
*1312 FILLER_10_261
*1313 FILLER_10_266
*1314 FILLER_10_27
*1315 FILLER_10_278
*1316 FILLER_10_284
*1317 FILLER_10_29
*1318 FILLER_10_290
*1319 FILLER_10_298
*1320 FILLER_10_3
*1321 FILLER_10_306
*1322 FILLER_10_309
*1323 FILLER_10_321
*1324 FILLER_10_333
*1325 FILLER_10_345
*1326 FILLER_10_357
*1327 FILLER_10_363
*1328 FILLER_10_365
*1329 FILLER_10_37
*1330 FILLER_10_377
*1331 FILLER_10_389
*1332 FILLER_10_401
*1333 FILLER_10_413
*1334 FILLER_10_419
*1335 FILLER_10_421
*1336 FILLER_10_43
*1337 FILLER_10_433
*1338 FILLER_10_445
*1339 FILLER_10_457
*1340 FILLER_10_469
*1341 FILLER_10_475
*1342 FILLER_10_477
*1343 FILLER_10_489
*1344 FILLER_10_501
*1345 FILLER_10_513
*1346 FILLER_10_525
*1347 FILLER_10_531
*1348 FILLER_10_533
*1349 FILLER_10_545
*1350 FILLER_10_557
*1351 FILLER_10_569
*1352 FILLER_10_581
*1353 FILLER_10_587
*1354 FILLER_10_589
*1355 FILLER_10_59
*1356 FILLER_10_601
*1357 FILLER_10_613
*1358 FILLER_10_625
*1359 FILLER_10_63
*1360 FILLER_10_637
*1361 FILLER_10_643
*1362 FILLER_10_645
*1363 FILLER_10_657
*1364 FILLER_10_669
*1365 FILLER_10_681
*1366 FILLER_10_693
*1367 FILLER_10_699
*1368 FILLER_10_701
*1369 FILLER_10_713
*1370 FILLER_10_725
*1371 FILLER_10_80
*1372 FILLER_10_85
*1373 FILLER_10_91
*1374 FILLER_10_97
*1375 FILLER_11_108
*1376 FILLER_11_129
*1377 FILLER_11_137
*1378 FILLER_11_143
*1379 FILLER_11_15
*1380 FILLER_11_150
*1381 FILLER_11_157
*1382 FILLER_11_164
*1383 FILLER_11_177
*1384 FILLER_11_181
*1385 FILLER_11_185
*1386 FILLER_11_199
*1387 FILLER_11_206
*1388 FILLER_11_218
*1389 FILLER_11_227
*1390 FILLER_11_233
*1391 FILLER_11_245
*1392 FILLER_11_267
*1393 FILLER_11_27
*1394 FILLER_11_274
*1395 FILLER_11_287
*1396 FILLER_11_295
*1397 FILLER_11_3
*1398 FILLER_11_302
*1399 FILLER_11_314
*1400 FILLER_11_326
*1401 FILLER_11_334
*1402 FILLER_11_337
*1403 FILLER_11_349
*1404 FILLER_11_35
*1405 FILLER_11_361
*1406 FILLER_11_373
*1407 FILLER_11_385
*1408 FILLER_11_391
*1409 FILLER_11_393
*1410 FILLER_11_405
*1411 FILLER_11_417
*1412 FILLER_11_429
*1413 FILLER_11_441
*1414 FILLER_11_447
*1415 FILLER_11_449
*1416 FILLER_11_46
*1417 FILLER_11_461
*1418 FILLER_11_473
*1419 FILLER_11_485
*1420 FILLER_11_497
*1421 FILLER_11_503
*1422 FILLER_11_505
*1423 FILLER_11_517
*1424 FILLER_11_52
*1425 FILLER_11_529
*1426 FILLER_11_541
*1427 FILLER_11_553
*1428 FILLER_11_559
*1429 FILLER_11_561
*1430 FILLER_11_57
*1431 FILLER_11_573
*1432 FILLER_11_585
*1433 FILLER_11_597
*1434 FILLER_11_609
*1435 FILLER_11_61
*1436 FILLER_11_615
*1437 FILLER_11_617
*1438 FILLER_11_629
*1439 FILLER_11_641
*1440 FILLER_11_653
*1441 FILLER_11_665
*1442 FILLER_11_671
*1443 FILLER_11_673
*1444 FILLER_11_685
*1445 FILLER_11_697
*1446 FILLER_11_709
*1447 FILLER_11_72
*1448 FILLER_11_721
*1449 FILLER_11_727
*1450 FILLER_11_729
*1451 FILLER_11_80
*1452 FILLER_11_84
*1453 FILLER_11_96
*1454 FILLER_12_102
*1455 FILLER_12_106
*1456 FILLER_12_110
*1457 FILLER_12_117
*1458 FILLER_12_129
*1459 FILLER_12_136
*1460 FILLER_12_141
*1461 FILLER_12_15
*1462 FILLER_12_151
*1463 FILLER_12_157
*1464 FILLER_12_161
*1465 FILLER_12_168
*1466 FILLER_12_175
*1467 FILLER_12_181
*1468 FILLER_12_192
*1469 FILLER_12_200
*1470 FILLER_12_206
*1471 FILLER_12_214
*1472 FILLER_12_236
*1473 FILLER_12_248
*1474 FILLER_12_253
*1475 FILLER_12_261
*1476 FILLER_12_266
*1477 FILLER_12_27
*1478 FILLER_12_272
*1479 FILLER_12_284
*1480 FILLER_12_29
*1481 FILLER_12_290
*1482 FILLER_12_294
*1483 FILLER_12_3
*1484 FILLER_12_306
*1485 FILLER_12_309
*1486 FILLER_12_321
*1487 FILLER_12_333
*1488 FILLER_12_345
*1489 FILLER_12_357
*1490 FILLER_12_363
*1491 FILLER_12_365
*1492 FILLER_12_377
*1493 FILLER_12_389
*1494 FILLER_12_401
*1495 FILLER_12_41
*1496 FILLER_12_413
*1497 FILLER_12_419
*1498 FILLER_12_421
*1499 FILLER_12_433
*1500 FILLER_12_445
*1501 FILLER_12_457
*1502 FILLER_12_46
*1503 FILLER_12_469
*1504 FILLER_12_475
*1505 FILLER_12_477
*1506 FILLER_12_489
*1507 FILLER_12_50
*1508 FILLER_12_501
*1509 FILLER_12_513
*1510 FILLER_12_525
*1511 FILLER_12_531
*1512 FILLER_12_533
*1513 FILLER_12_545
*1514 FILLER_12_557
*1515 FILLER_12_569
*1516 FILLER_12_581
*1517 FILLER_12_587
*1518 FILLER_12_589
*1519 FILLER_12_601
*1520 FILLER_12_61
*1521 FILLER_12_613
*1522 FILLER_12_625
*1523 FILLER_12_637
*1524 FILLER_12_643
*1525 FILLER_12_645
*1526 FILLER_12_657
*1527 FILLER_12_669
*1528 FILLER_12_681
*1529 FILLER_12_693
*1530 FILLER_12_699
*1531 FILLER_12_701
*1532 FILLER_12_713
*1533 FILLER_12_725
*1534 FILLER_12_73
*1535 FILLER_12_79
*1536 FILLER_12_83
*1537 FILLER_12_85
*1538 FILLER_12_89
*1539 FILLER_12_95
*1540 FILLER_13_105
*1541 FILLER_13_108
*1542 FILLER_13_129
*1543 FILLER_13_143
*1544 FILLER_13_15
*1545 FILLER_13_153
*1546 FILLER_13_160
*1547 FILLER_13_185
*1548 FILLER_13_209
*1549 FILLER_13_215
*1550 FILLER_13_223
*1551 FILLER_13_225
*1552 FILLER_13_237
*1553 FILLER_13_244
*1554 FILLER_13_268
*1555 FILLER_13_27
*1556 FILLER_13_276
*1557 FILLER_13_281
*1558 FILLER_13_287
*1559 FILLER_13_291
*1560 FILLER_13_3
*1561 FILLER_13_303
*1562 FILLER_13_309
*1563 FILLER_13_321
*1564 FILLER_13_333
*1565 FILLER_13_337
*1566 FILLER_13_349
*1567 FILLER_13_35
*1568 FILLER_13_361
*1569 FILLER_13_373
*1570 FILLER_13_385
*1571 FILLER_13_391
*1572 FILLER_13_393
*1573 FILLER_13_405
*1574 FILLER_13_41
*1575 FILLER_13_417
*1576 FILLER_13_429
*1577 FILLER_13_441
*1578 FILLER_13_447
*1579 FILLER_13_449
*1580 FILLER_13_45
*1581 FILLER_13_461
*1582 FILLER_13_473
*1583 FILLER_13_485
*1584 FILLER_13_497
*1585 FILLER_13_503
*1586 FILLER_13_505
*1587 FILLER_13_517
*1588 FILLER_13_52
*1589 FILLER_13_529
*1590 FILLER_13_541
*1591 FILLER_13_553
*1592 FILLER_13_559
*1593 FILLER_13_561
*1594 FILLER_13_57
*1595 FILLER_13_573
*1596 FILLER_13_585
*1597 FILLER_13_597
*1598 FILLER_13_609
*1599 FILLER_13_615
*1600 FILLER_13_617
*1601 FILLER_13_629
*1602 FILLER_13_641
*1603 FILLER_13_65
*1604 FILLER_13_653
*1605 FILLER_13_665
*1606 FILLER_13_671
*1607 FILLER_13_673
*1608 FILLER_13_685
*1609 FILLER_13_697
*1610 FILLER_13_709
*1611 FILLER_13_721
*1612 FILLER_13_727
*1613 FILLER_13_729
*1614 FILLER_13_84
*1615 FILLER_13_97
*1616 FILLER_14_121
*1617 FILLER_14_131
*1618 FILLER_14_139
*1619 FILLER_14_141
*1620 FILLER_14_148
*1621 FILLER_14_15
*1622 FILLER_14_158
*1623 FILLER_14_167
*1624 FILLER_14_176
*1625 FILLER_14_190
*1626 FILLER_14_207
*1627 FILLER_14_211
*1628 FILLER_14_220
*1629 FILLER_14_230
*1630 FILLER_14_242
*1631 FILLER_14_250
*1632 FILLER_14_253
*1633 FILLER_14_265
*1634 FILLER_14_27
*1635 FILLER_14_271
*1636 FILLER_14_284
*1637 FILLER_14_29
*1638 FILLER_14_297
*1639 FILLER_14_3
*1640 FILLER_14_305
*1641 FILLER_14_315
*1642 FILLER_14_327
*1643 FILLER_14_339
*1644 FILLER_14_35
*1645 FILLER_14_351
*1646 FILLER_14_363
*1647 FILLER_14_365
*1648 FILLER_14_377
*1649 FILLER_14_389
*1650 FILLER_14_39
*1651 FILLER_14_401
*1652 FILLER_14_413
*1653 FILLER_14_419
*1654 FILLER_14_421
*1655 FILLER_14_433
*1656 FILLER_14_445
*1657 FILLER_14_457
*1658 FILLER_14_469
*1659 FILLER_14_475
*1660 FILLER_14_477
*1661 FILLER_14_489
*1662 FILLER_14_49
*1663 FILLER_14_501
*1664 FILLER_14_513
*1665 FILLER_14_525
*1666 FILLER_14_531
*1667 FILLER_14_533
*1668 FILLER_14_545
*1669 FILLER_14_557
*1670 FILLER_14_569
*1671 FILLER_14_581
*1672 FILLER_14_587
*1673 FILLER_14_589
*1674 FILLER_14_601
*1675 FILLER_14_61
*1676 FILLER_14_613
*1677 FILLER_14_625
*1678 FILLER_14_637
*1679 FILLER_14_643
*1680 FILLER_14_645
*1681 FILLER_14_657
*1682 FILLER_14_669
*1683 FILLER_14_681
*1684 FILLER_14_693
*1685 FILLER_14_699
*1686 FILLER_14_701
*1687 FILLER_14_713
*1688 FILLER_14_725
*1689 FILLER_14_75
*1690 FILLER_14_83
*1691 FILLER_14_87
*1692 FILLER_14_99