*SPEF "ieee 1481-1999"
*DESIGN "pixel"
*DATE "11:11:11 Fri 11 11, 1111"
*VENDOR "OpenRCX"
*PROGRAM "Parallel Extraction"
*VERSION "1.0"
*DESIGN_FLOW "NAME_SCOPE LOCAL" "PIN_CAP NONE"
*DIVIDER /
*DELIMITER :
*BUS_DELIMITER []
*T_UNIT 1 NS
*C_UNIT 1 PF
*R_UNIT 1 OHM
*L_UNIT 1 HENRY

*NAME_MAP
*1 adj_max_clk[0]
*2 adj_max_clk[1]
*3 adj_max_clk[2]
*4 adj_max_clk[3]
*5 adj_max_clk[4]
*6 adj_max_clk[5]
*7 adj_max_clk[6]
*8 adj_max_clk[7]
*9 adj_max_clk[8]
*10 adj_max_clk[9]
*11 adj_timer_en
*12 adj_timer_m_i
*13 adj_timer_max
*14 clk
*15 data_in
*16 data_out[0]
*17 data_out[10]
*18 data_out[11]
*19 data_out[12]
*20 data_out[13]
*21 data_out[14]
*22 net82
*23 data_out[1]
*24 data_out[2]
*25 data_out[3]
*26 data_out[4]
*27 data_out[5]
*28 data_out[6]
*29 data_out[7]
*30 data_out[8]
*31 data_out[9]
*32 net83
*33 net84
*34 net85
*35 net86
*36 kernel_done_o
*37 loc_max_clk[0]
*38 loc_max_clk[1]
*39 loc_max_clk[2]
*40 loc_max_clk[3]
*41 loc_max_clk[4]
*42 loc_max_clk[5]
*43 loc_max_clk[6]
*44 loc_max_clk[7]
*45 loc_max_clk[8]
*46 loc_max_clk[9]
*47 loc_timer_en
*48 loc_timer_m_i
*49 loc_timer_max
*50 pxl_done_i
*51 pxl_done_o
*52 pxl_q[0]
*53 pxl_q[1]
*54 pxl_q[2]
*55 pxl_q[3]
*56 pxl_start_i
*57 reset
*58 s1
*59 s1_inv
*60 s2
*61 s2_inv
*62 s_p1
*63 s_p2
*64 v_b0
*65 v_b1
*68 _000_
*69 _001_
*70 _002_
*71 _003_
*72 _004_
*73 _005_
*74 _006_
*75 _007_
*76 _008_
*77 _009_
*78 _010_
*79 _011_
*80 _012_
*81 _013_
*82 _014_
*83 _015_
*84 _016_
*85 _017_
*86 _018_
*87 _019_
*88 _020_
*89 _021_
*90 _022_
*91 _023_
*92 _024_
*93 _025_
*94 _026_
*95 _027_
*96 _028_
*97 _029_
*98 _030_
*99 _031_
*100 _032_
*101 _033_
*102 _034_
*103 _035_
*104 _036_
*105 _037_
*106 _038_
*107 _039_
*108 _040_
*109 _041_
*110 _042_
*111 _043_
*112 _044_
*113 _045_
*114 _046_
*115 _047_
*116 _048_
*117 _049_
*118 _050_
*119 _051_
*120 _052_
*121 _053_
*122 _054_
*123 _055_
*124 _056_
*125 _057_
*126 _058_
*127 _059_
*128 _060_
*129 _061_
*130 _062_
*131 _063_
*132 _064_
*133 _065_
*134 _066_
*135 _067_
*136 _068_
*137 _069_
*138 _070_
*139 _071_
*140 _072_
*141 _073_
*142 _074_
*143 _075_
*144 _076_
*145 _077_
*146 _078_
*147 _079_
*148 _080_
*149 _081_
*150 _082_
*151 _083_
*152 _084_
*153 _085_
*154 _086_
*155 _087_
*156 _088_
*157 _089_
*158 _090_
*159 _091_
*160 _092_
*161 _093_
*162 _094_
*163 _095_
*164 _096_
*165 _097_
*166 _098_
*167 _099_
*168 _100_
*169 _101_
*170 _102_
*171 _103_
*172 _104_
*173 _105_
*174 _106_
*175 _107_
*176 _108_
*177 _109_
*178 _110_
*179 _111_
*180 _112_
*181 _113_
*182 _114_
*183 _115_
*184 _116_
*185 _117_
*186 _118_
*187 _119_
*188 _120_
*189 _121_
*190 _122_
*191 _123_
*192 _124_
*193 _125_
*194 _126_
*195 _127_
*196 _128_
*197 _129_
*198 _130_
*199 _131_
*200 _132_
*201 _133_
*202 _134_
*203 _135_
*204 _136_
*205 _137_
*206 _138_
*207 _139_
*208 _140_
*209 _141_
*210 _142_
*211 _143_
*212 _144_
*213 _145_
*214 _146_
*215 _147_
*216 _148_
*217 _149_
*218 _150_
*219 _151_
*220 _152_
*221 _153_
*222 _154_
*223 _155_
*224 _156_
*225 _157_
*226 _158_
*227 _159_
*228 _160_
*229 _161_
*230 _162_
*231 _163_
*232 _164_
*233 _165_
*234 _166_
*235 _167_
*236 _168_
*237 _169_
*238 _170_
*239 _171_
*240 _172_
*241 _173_
*242 _174_
*243 _175_
*244 _176_
*245 _177_
*246 _178_
*247 _179_
*248 _180_
*249 _181_
*250 _182_
*251 _183_
*252 _184_
*253 _185_
*254 _186_
*255 _187_
*256 _188_
*257 _189_
*258 _190_
*259 _191_
*260 _192_
*261 _193_
*262 _194_
*263 _195_
*264 _196_
*265 _197_
*266 _198_
*267 _199_
*268 _200_
*269 _201_
*270 _202_
*271 _203_
*272 _204_
*273 _205_
*274 _206_
*275 _207_
*276 _208_
*277 _209_
*278 _210_
*279 _211_
*280 _212_
*281 _213_
*282 _214_
*283 _215_
*284 _216_
*285 _217_
*286 _218_
*287 _219_
*288 _220_
*289 _221_
*290 _222_
*291 _223_
*292 _224_
*293 _225_
*294 _226_
*295 _227_
*296 _228_
*297 _229_
*298 _230_
*299 _231_
*300 _232_
*301 _233_
*302 _234_
*303 _235_
*304 _236_
*305 _237_
*306 _238_
*307 _239_
*308 _240_
*309 _241_
*310 _242_
*311 _243_
*312 _244_
*313 _245_
*314 _246_
*315 _247_
*316 _248_
*317 _249_
*318 _250_
*319 _251_
*320 _252_
*321 _253_
*322 _254_
*323 _255_
*324 _256_
*325 _257_
*326 _258_
*327 _259_
*328 _260_
*329 _261_
*330 _262_
*331 _263_
*332 _264_
*333 _265_
*334 _266_
*335 _267_
*336 _268_
*337 _269_
*338 _270_
*339 _271_
*340 _272_
*341 _273_
*342 _274_
*343 _275_
*344 _276_
*345 _277_
*346 _278_
*347 _279_
*348 _280_
*349 _281_
*350 _282_
*351 _283_
*352 _284_
*353 _285_
*354 _286_
*355 _287_
*356 _288_
*357 _289_
*358 _290_
*359 _291_
*360 _292_
*361 clknet_0_clk
*362 clknet_1_0__leaf_clk
*363 clknet_1_1__leaf_clk
*364 inst1\.next_state\[0\]
*365 inst1\.next_state\[1\]
*366 inst1\.next_state\[2\]
*367 inst1\.state\[0\]
*368 inst1\.state\[1\]
*369 inst1\.state\[2\]
*370 inst4\.pixel_count_max
*371 net1
*372 net10
*373 net11
*374 net12
*375 net13
*376 net14
*377 net15
*378 net16
*379 net17
*380 net18
*381 net19
*382 net2
*383 net20
*384 net21
*385 net22
*386 net23
*387 net24
*388 net25
*389 net26
*390 net27
*391 net28
*392 net29
*393 net3
*394 net30
*395 net31
*396 net32
*397 net33
*398 net34
*399 net35
*400 net36
*401 net37
*402 net38
*403 net39
*404 net4
*405 net40
*406 net41
*407 net42
*408 net43
*409 net44
*410 net45
*411 net46
*412 net47
*413 net48
*414 net49
*415 net5
*416 net50
*417 net51
*418 net52
*419 net53
*420 net54
*421 net55
*422 net56
*423 net57
*424 net58
*425 net59
*426 net6
*427 net60
*428 net61
*429 net62
*430 net63
*431 net64
*432 net65
*433 net66
*434 net67
*435 net68
*436 net69
*437 net7
*438 net70
*439 net71
*440 net72
*441 net73
*442 net74
*443 net75
*444 net76
*445 net77
*446 net78
*447 net79
*448 net8
*449 net80
*450 net81
*451 net9
*452 ANTENNA__293__A
*453 ANTENNA__302__A
*454 ANTENNA__309__B
*455 ANTENNA__310__A1
*456 ANTENNA__310__C1
*457 ANTENNA__314__A4
*458 ANTENNA__314__B1
*459 ANTENNA__315__A3
*460 ANTENNA__320__A2
*461 ANTENNA__321__A3
*462 ANTENNA__321__C1
*463 ANTENNA__322__A2
*464 ANTENNA__322__B1
*465 ANTENNA__323__A2
*466 ANTENNA__337__A
*467 ANTENNA__345__B_N
*468 ANTENNA__346__C
*469 ANTENNA__370__A
*470 ANTENNA__383__A
*471 ANTENNA__384__A
*472 ANTENNA__386__A
*473 ANTENNA__388__C
*474 ANTENNA__389__A
*475 ANTENNA__397__A1
*476 ANTENNA__398__B1
*477 ANTENNA__402__A
*478 ANTENNA__403__A
*479 ANTENNA__406__A
*480 ANTENNA__411__A
*481 ANTENNA__412__A
*482 ANTENNA__417__A
*483 ANTENNA__420__A
*484 ANTENNA__424__A
*485 ANTENNA__426__A
*486 ANTENNA__427__A
*487 ANTENNA__430__A
*488 ANTENNA__432__A
*489 ANTENNA__434__A
*490 ANTENNA__436__A
*491 ANTENNA__438__A
*492 ANTENNA__442__A
*493 ANTENNA__446__A
*494 ANTENNA__450__A
*495 ANTENNA__452__A
*496 ANTENNA__454__A
*497 ANTENNA__456__A
*498 ANTENNA__457__A
*499 ANTENNA__459__A
*500 ANTENNA__459__B
*501 ANTENNA__461__A
*502 ANTENNA__463__A
*503 ANTENNA__465__A
*504 ANTENNA__465__B
*505 ANTENNA__467__A
*506 ANTENNA__469__A
*507 ANTENNA__471__A
*508 ANTENNA__472__A
*509 ANTENNA__474__A
*510 ANTENNA__476__A
*511 ANTENNA__478__A
*512 ANTENNA__480__A
*513 ANTENNA__482__A
*514 ANTENNA__482__B
*515 ANTENNA__484__A
*516 ANTENNA__486__A
*517 ANTENNA__493__A
*518 ANTENNA__493__B
*519 ANTENNA__499__A
*520 ANTENNA__506__A
*521 ANTENNA__511__A
*522 ANTENNA__511__B
*523 ANTENNA__515__A
*524 ANTENNA__522__A
*525 ANTENNA__522__B
*526 ANTENNA__528__A
*527 ANTENNA__529__B
*528 ANTENNA__535__A
*529 ANTENNA__539__A
*530 ANTENNA__539__B
*531 ANTENNA__543__A
*532 ANTENNA__544__A
*533 ANTENNA__546__A
*534 ANTENNA__548__A
*535 ANTENNA__550__A
*536 ANTENNA__550__B
*537 ANTENNA__552__A
*538 ANTENNA__554__A
*539 ANTENNA__556__A
*540 ANTENNA__556__B
*541 ANTENNA__558__A
*542 ANTENNA__560__A
*543 ANTENNA__562__A
*544 ANTENNA__564__A
*545 ANTENNA__564__B
*546 ANTENNA__566__A
*547 ANTENNA__566__B
*548 ANTENNA__568__A
*549 ANTENNA__577__B
*550 ANTENNA__581__A
*551 ANTENNA__583__A
*552 ANTENNA__589__A
*553 ANTENNA__590__A
*554 ANTENNA__601__CLK
*555 ANTENNA__603__CLK
*556 ANTENNA__604__CLK
*557 ANTENNA__612__CLK
*558 ANTENNA__693__A
*559 ANTENNA__695__A
*560 ANTENNA_clkbuf_0_clk_A
*561 ANTENNA_input10_A
*562 ANTENNA_input11_A
*563 ANTENNA_input12_A
*564 ANTENNA_input13_A
*565 ANTENNA_input14_A
*566 ANTENNA_input15_A
*567 ANTENNA_input16_A
*568 ANTENNA_input17_A
*569 ANTENNA_input18_A
*570 ANTENNA_input19_A
*571 ANTENNA_input1_A
*572 ANTENNA_input20_A
*573 ANTENNA_input21_A
*574 ANTENNA_input22_A
*575 ANTENNA_input2_A
*576 ANTENNA_input3_A
*577 ANTENNA_input4_A
*578 ANTENNA_input5_A
*579 ANTENNA_input6_A
*580 ANTENNA_input7_A
*581 ANTENNA_input8_A
*582 ANTENNA_input9_A
*583 ANTENNA_output23_A
*584 ANTENNA_output26_A
*585 ANTENNA_output27_A
*586 ANTENNA_output28_A
*587 ANTENNA_output29_A
*588 ANTENNA_output30_A
*589 ANTENNA_output33_A
*590 ANTENNA_output34_A
*591 ANTENNA_output35_A
*592 ANTENNA_output36_A
*593 ANTENNA_output37_A
*594 ANTENNA_output38_A
*595 ANTENNA_output39_A
*596 ANTENNA_output40_A
*597 ANTENNA_output41_A
*598 ANTENNA_output43_A
*599 ANTENNA_output44_A
*600 ANTENNA_output49_A
*601 ANTENNA_output51_A
*602 ANTENNA_output52_A
*603 ANTENNA_output54_A
*604 ANTENNA_output55_A
*605 ANTENNA_repeater67_A
*606 ANTENNA_repeater68_A
*607 ANTENNA_repeater69_A
*608 ANTENNA_repeater71_A
*609 ANTENNA_repeater72_A
*610 FILLER_0_111
*611 FILLER_0_113
*612 FILLER_0_119
*613 FILLER_0_127
*614 FILLER_0_131
*615 FILLER_0_139
*616 FILLER_0_144
*617 FILLER_0_15
*618 FILLER_0_150
*619 FILLER_0_157
*620 FILLER_0_161
*621 FILLER_0_164
*622 FILLER_0_172
*623 FILLER_0_183
*624 FILLER_0_189
*625 FILLER_0_192
*626 FILLER_0_200
*627 FILLER_0_209
*628 FILLER_0_21
*629 FILLER_0_217
*630 FILLER_0_220
*631 FILLER_0_228
*632 FILLER_0_235
*633 FILLER_0_24
*634 FILLER_0_241
*635 FILLER_0_248
*636 FILLER_0_253
*637 FILLER_0_257
*638 FILLER_0_262
*639 FILLER_0_268
*640 FILLER_0_281
*641 FILLER_0_288
*642 FILLER_0_296
*643 FILLER_0_300
*644 FILLER_0_309
*645 FILLER_0_313
*646 FILLER_0_319
*647 FILLER_0_32
*648 FILLER_0_326
*649 FILLER_0_332
*650 FILLER_0_340
*651 FILLER_0_348
*652 FILLER_0_352
*653 FILLER_0_358
*654 FILLER_0_36
*655 FILLER_0_368
*656 FILLER_0_374
*657 FILLER_0_378
*658 FILLER_0_384
*659 FILLER_0_396
*660 FILLER_0_403
*661 FILLER_0_41
*662 FILLER_0_47
*663 FILLER_0_52
*664 FILLER_0_57
*665 FILLER_0_67
*666 FILLER_0_7
*667 FILLER_0_75
*668 FILLER_0_80
*669 FILLER_0_85
*670 FILLER_0_93
*671 FILLER_0_99
*672 FILLER_10_107
*673 FILLER_10_115
*674 FILLER_10_136
*675 FILLER_10_144
*676 FILLER_10_15
*677 FILLER_10_156
*678 FILLER_10_168
*679 FILLER_10_180
*680 FILLER_10_192
*681 FILLER_10_197
*682 FILLER_10_209
*683 FILLER_10_221
*684 FILLER_10_233
*685 FILLER_10_24
*686 FILLER_10_241
*687 FILLER_10_244
*688 FILLER_10_253
*689 FILLER_10_265
*690 FILLER_10_277
*691 FILLER_10_292
*692 FILLER_10_3
*693 FILLER_10_304
*694 FILLER_10_309
*695 FILLER_10_317
*696 FILLER_10_320
*697 FILLER_10_328
*698 FILLER_10_332
*699 FILLER_10_335
*700 FILLER_10_347
*701 FILLER_10_358
*702 FILLER_10_368
*703 FILLER_10_388
*704 FILLER_10_400
*705 FILLER_10_406
*706 FILLER_10_41
*707 FILLER_10_53
*708 FILLER_10_60
*709 FILLER_10_68
*710 FILLER_10_71
*711 FILLER_10_83
*712 FILLER_10_85
*713 FILLER_11_103
*714 FILLER_11_111
*715 FILLER_11_113
*716 FILLER_11_125
*717 FILLER_11_132
*718 FILLER_11_144
*719 FILLER_11_15
*720 FILLER_11_156
*721 FILLER_11_169
*722 FILLER_11_177
*723 FILLER_11_190
*724 FILLER_11_198
*725 FILLER_11_204
*726 FILLER_11_216
*727 FILLER_11_225
*728 FILLER_11_239
*729 FILLER_11_24
*730 FILLER_11_243
*731 FILLER_11_249
*732 FILLER_11_261
*733 FILLER_11_273
*734 FILLER_11_279
*735 FILLER_11_284
*736 FILLER_11_3
*737 FILLER_11_300
*738 FILLER_11_31
*739 FILLER_11_312
*740 FILLER_11_315
*741 FILLER_11_321
*742 FILLER_11_330
*743 FILLER_11_342
*744 FILLER_11_354
*745 FILLER_11_366
*746 FILLER_11_37
*747 FILLER_11_378
*748 FILLER_11_390
*749 FILLER_11_393
*750 FILLER_11_405
*751 FILLER_11_43
*752 FILLER_11_55
*753 FILLER_11_57
*754 FILLER_11_61
*755 FILLER_11_67
*756 FILLER_11_73
*757 FILLER_11_79
*758 FILLER_11_85
*759 FILLER_11_91
*760 FILLER_12_109
*761 FILLER_12_121
*762 FILLER_12_13
*763 FILLER_12_133
*764 FILLER_12_139
*765 FILLER_12_141
*766 FILLER_12_153
*767 FILLER_12_165
*768 FILLER_12_177
*769 FILLER_12_189
*770 FILLER_12_195
*771 FILLER_12_197
*772 FILLER_12_209
*773 FILLER_12_213
*774 FILLER_12_218
*775 FILLER_12_22
*776 FILLER_12_228
*777 FILLER_12_237
*778 FILLER_12_243
*779 FILLER_12_251
*780 FILLER_12_253
*781 FILLER_12_265
*782 FILLER_12_273
*783 FILLER_12_287
*784 FILLER_12_299
*785 FILLER_12_307
*786 FILLER_12_309
*787 FILLER_12_31
*788 FILLER_12_317
*789 FILLER_12_323
*790 FILLER_12_331
*791 FILLER_12_337
*792 FILLER_12_349
*793 FILLER_12_361
*794 FILLER_12_365
*795 FILLER_12_377
*796 FILLER_12_389
*797 FILLER_12_401
*798 FILLER_12_43
*799 FILLER_12_55
*800 FILLER_12_62
*801 FILLER_12_66
*802 FILLER_12_69
*803 FILLER_12_7
*804 FILLER_12_81
*805 FILLER_12_85
*806 FILLER_12_97
*807 FILLER_13_103
*808 FILLER_13_111
*809 FILLER_13_113
*810 FILLER_13_125
*811 FILLER_13_137
*812 FILLER_13_149
*813 FILLER_13_15
*814 FILLER_13_161
*815 FILLER_13_167
*816 FILLER_13_169
*817 FILLER_13_181
*818 FILLER_13_193
*819 FILLER_13_205
*820 FILLER_13_21
*821 FILLER_13_217
*822 FILLER_13_223
*823 FILLER_13_238
*824 FILLER_13_24
*825 FILLER_13_250
*826 FILLER_13_256
*827 FILLER_13_268
*828 FILLER_13_281
*829 FILLER_13_293
*830 FILLER_13_3
*831 FILLER_13_305
*832 FILLER_13_317
*833 FILLER_13_327
*834 FILLER_13_335
*835 FILLER_13_337
*836 FILLER_13_349
*837 FILLER_13_36
*838 FILLER_13_361
*839 FILLER_13_373
*840 FILLER_13_385
*841 FILLER_13_391
*842 FILLER_13_393
*843 FILLER_13_405
*844 FILLER_13_48
*845 FILLER_13_57
*846 FILLER_13_67
*847 FILLER_13_79
*848 FILLER_13_91
*849 FILLER_14_109
*850 FILLER_14_121
*851 FILLER_14_13
*852 FILLER_14_133
*853 FILLER_14_139
*854 FILLER_14_141
*855 FILLER_14_153
*856 FILLER_14_161
*857 FILLER_14_172
*858 FILLER_14_184
*859 FILLER_14_197
*860 FILLER_14_209
*861 FILLER_14_221
*862 FILLER_14_233
*863 FILLER_14_245
*864 FILLER_14_25
*865 FILLER_14_251
*866 FILLER_14_253
*867 FILLER_14_265
*868 FILLER_14_277
*869 FILLER_14_283
*870 FILLER_14_287
*871 FILLER_14_29
*872 FILLER_14_299
*873 FILLER_14_307
*874 FILLER_14_309
*875 FILLER_14_321
*876 FILLER_14_333
*877 FILLER_14_345
*878 FILLER_14_357
*879 FILLER_14_363
*880 FILLER_14_365
*881 FILLER_14_37
*882 FILLER_14_373
*883 FILLER_14_386
*884 FILLER_14_398
*885 FILLER_14_406
*886 FILLER_14_42
*887 FILLER_14_54
*888 FILLER_14_66
*889 FILLER_14_7
*890 FILLER_14_78
*891 FILLER_14_85
*892 FILLER_14_97
*893 FILLER_15_104
*894 FILLER_15_113
*895 FILLER_15_125
*896 FILLER_15_137
*897 FILLER_15_149
*898 FILLER_15_15
*899 FILLER_15_161
*900 FILLER_15_167
*901 FILLER_15_169
*902 FILLER_15_181
*903 FILLER_15_189
*904 FILLER_15_195
*905 FILLER_15_207
*906 FILLER_15_219
*907 FILLER_15_223
*908 FILLER_15_225
*909 FILLER_15_233
*910 FILLER_15_239
*911 FILLER_15_251
*912 FILLER_15_263
*913 FILLER_15_27
*914 FILLER_15_275
*915 FILLER_15_279
*916 FILLER_15_281
*917 FILLER_15_293
*918 FILLER_15_3
*919 FILLER_15_305
*920 FILLER_15_317
*921 FILLER_15_329
*922 FILLER_15_335
*923 FILLER_15_339
*924 FILLER_15_350
*925 FILLER_15_357
*926 FILLER_15_365
*927 FILLER_15_378
*928 FILLER_15_39
*929 FILLER_15_390
*930 FILLER_15_393
*931 FILLER_15_405
*932 FILLER_15_51
*933 FILLER_15_55
*934 FILLER_15_57
*935 FILLER_15_68
*936 FILLER_15_80
*937 FILLER_15_92
*938 FILLER_16_111
*939 FILLER_16_123
*940 FILLER_16_131
*941 FILLER_16_136
*942 FILLER_16_141
*943 FILLER_16_149
*944 FILLER_16_15
*945 FILLER_16_161
*946 FILLER_16_171
*947 FILLER_16_177
*948 FILLER_16_189
*949 FILLER_16_195
*950 FILLER_16_197
*951 FILLER_16_209
*952 FILLER_16_221
*953 FILLER_16_233
*954 FILLER_16_245
*955 FILLER_16_251
*956 FILLER_16_258
*957 FILLER_16_27
*958 FILLER_16_270
*959 FILLER_16_278
*960 FILLER_16_282
*961 FILLER_16_29
*962 FILLER_16_294
*963 FILLER_16_3
*964 FILLER_16_306
*965 FILLER_16_309
*966 FILLER_16_321
*967 FILLER_16_326
*968 FILLER_16_335
*969 FILLER_16_344
*970 FILLER_16_356
*971 FILLER_16_365
*972 FILLER_16_377
*973 FILLER_16_389
*974 FILLER_16_401
*975 FILLER_16_41
*976 FILLER_16_53
*977 FILLER_16_65
*978 FILLER_16_77
*979 FILLER_16_83
*980 FILLER_16_85
*981 FILLER_16_93
*982 FILLER_16_99
*983 FILLER_17_106
*984 FILLER_17_113
*985 FILLER_17_125
*986 FILLER_17_13
*987 FILLER_17_132
*988 FILLER_17_140
*989 FILLER_17_148
*990 FILLER_17_154
*991 FILLER_17_166
*992 FILLER_17_169
*993 FILLER_17_17
*994 FILLER_17_181
*995 FILLER_17_187
*996 FILLER_17_199
*997 FILLER_17_20
*998 FILLER_17_211
*999 FILLER_17_223
*1000 FILLER_17_225
*1001 FILLER_17_237
*1002 FILLER_17_249
*1003 FILLER_17_261
*1004 FILLER_17_273
*1005 FILLER_17_279
*1006 FILLER_17_293
*1007 FILLER_17_30
*1008 FILLER_17_309
*1009 FILLER_17_321
*1010 FILLER_17_333
*1011 FILLER_17_337
*1012 FILLER_17_349
*1013 FILLER_17_361
*1014 FILLER_17_373
*1015 FILLER_17_385
*1016 FILLER_17_391
*1017 FILLER_17_393
*1018 FILLER_17_405
*1019 FILLER_17_42
*1020 FILLER_17_54
*1021 FILLER_17_60
*1022 FILLER_17_7
*1023 FILLER_17_72
*1024 FILLER_17_82
*1025 FILLER_18_109
*1026 FILLER_18_11
*1027 FILLER_18_121
*1028 FILLER_18_125
*1029 FILLER_18_136
*1030 FILLER_18_149
*1031 FILLER_18_155
*1032 FILLER_18_16
*1033 FILLER_18_167
*1034 FILLER_18_179
*1035 FILLER_18_191
*1036 FILLER_18_195
*1037 FILLER_18_197
*1038 FILLER_18_209
*1039 FILLER_18_221
*1040 FILLER_18_233
*1041 FILLER_18_24
*1042 FILLER_18_245
*1043 FILLER_18_251
*1044 FILLER_18_253
*1045 FILLER_18_259
*1046 FILLER_18_263
*1047 FILLER_18_275
*1048 FILLER_18_286
*1049 FILLER_18_298
*1050 FILLER_18_3
*1051 FILLER_18_306
*1052 FILLER_18_309
*1053 FILLER_18_321
*1054 FILLER_18_333
*1055 FILLER_18_337
*1056 FILLER_18_349
*1057 FILLER_18_361
*1058 FILLER_18_365
*1059 FILLER_18_389
*1060 FILLER_18_401
*1061 FILLER_18_50
*1062 FILLER_18_62
*1063 FILLER_18_74
*1064 FILLER_18_82
*1065 FILLER_18_85
*1066 FILLER_18_91
*1067 FILLER_18_97
*1068 FILLER_19_105
*1069 FILLER_19_111
*1070 FILLER_19_113
*1071 FILLER_19_125
*1072 FILLER_19_13
*1073 FILLER_19_131
*1074 FILLER_19_134
*1075 FILLER_19_145
*1076 FILLER_19_151
*1077 FILLER_19_163
*1078 FILLER_19_167
*1079 FILLER_19_169
*1080 FILLER_19_181
*1081 FILLER_19_184
*1082 FILLER_19_192
*1083 FILLER_19_199
*1084 FILLER_19_209
*1085 FILLER_19_21
*1086 FILLER_19_221
*1087 FILLER_19_228
*1088 FILLER_19_240
*1089 FILLER_19_249
*1090 FILLER_19_261
*1091 FILLER_19_273
*1092 FILLER_19_276
*1093 FILLER_19_286
*1094 FILLER_19_29
*1095 FILLER_19_298
*1096 FILLER_19_310
*1097 FILLER_19_318
*1098 FILLER_19_323
*1099 FILLER_19_332
*1100 FILLER_19_342
*1101 FILLER_19_35
*1102 FILLER_19_353
*1103 FILLER_19_361
*1104 FILLER_19_367
*1105 FILLER_19_371
*1106 FILLER_19_384
*1107 FILLER_19_393
*1108 FILLER_19_405
*1109 FILLER_19_47
*1110 FILLER_19_55
*1111 FILLER_19_57
*1112 FILLER_19_69
*1113 FILLER_19_7
*1114 FILLER_19_81
*1115 FILLER_19_93
*1116 FILLER_1_105
*1117 FILLER_1_111
*1118 FILLER_1_113
*1119 FILLER_1_125
*1120 FILLER_1_128
*1121 FILLER_1_13
*1122 FILLER_1_138
*1123 FILLER_1_147
*1124 FILLER_1_159
*1125 FILLER_1_167
*1126 FILLER_1_169
*1127 FILLER_1_177
*1128 FILLER_1_180
*1129 FILLER_1_192
*1130 FILLER_1_20
*1131 FILLER_1_206
*1132 FILLER_1_218
*1133 FILLER_1_225
*1134 FILLER_1_237
*1135 FILLER_1_256
*1136 FILLER_1_26
*1137 FILLER_1_268
*1138 FILLER_1_281
*1139 FILLER_1_293
*1140 FILLER_1_297
*1141 FILLER_1_3
*1142 FILLER_1_309
*1143 FILLER_1_321
*1144 FILLER_1_327
*1145 FILLER_1_332
*1146 FILLER_1_339
*1147 FILLER_1_351
*1148 FILLER_1_365
*1149 FILLER_1_377
*1150 FILLER_1_38
*1151 FILLER_1_385
*1152 FILLER_1_388
*1153 FILLER_1_395
*1154 FILLER_1_399
*1155 FILLER_1_403
*1156 FILLER_1_43
*1157 FILLER_1_55
*1158 FILLER_1_57
*1159 FILLER_1_69
*1160 FILLER_1_81
*1161 FILLER_1_93
*1162 FILLER_20_102
*1163 FILLER_20_110
*1164 FILLER_20_115
*1165 FILLER_20_123
*1166 FILLER_20_135
*1167 FILLER_20_139
*1168 FILLER_20_141
*1169 FILLER_20_15
*1170 FILLER_20_153
*1171 FILLER_20_165
*1172 FILLER_20_174
*1173 FILLER_20_188
*1174 FILLER_20_207
*1175 FILLER_20_220
*1176 FILLER_20_226
*1177 FILLER_20_235
*1178 FILLER_20_247
*1179 FILLER_20_251
*1180 FILLER_20_253
*1181 FILLER_20_261
*1182 FILLER_20_27
*1183 FILLER_20_273
*1184 FILLER_20_285
*1185 FILLER_20_29
*1186 FILLER_20_297
*1187 FILLER_20_3
*1188 FILLER_20_305
*1189 FILLER_20_309
*1190 FILLER_20_321
*1191 FILLER_20_333
*1192 FILLER_20_345
*1193 FILLER_20_357
*1194 FILLER_20_363
*1195 FILLER_20_365
*1196 FILLER_20_377
*1197 FILLER_20_389
*1198 FILLER_20_401
*1199 FILLER_20_41
*1200 FILLER_20_53
*1201 FILLER_20_60
*1202 FILLER_20_69
*1203 FILLER_20_76
*1204 FILLER_20_85
*1205 FILLER_20_90
*1206 FILLER_21_104
*1207 FILLER_21_113
*1208 FILLER_21_125
*1209 FILLER_21_137
*1210 FILLER_21_149
*1211 FILLER_21_15
*1212 FILLER_21_161
*1213 FILLER_21_167
*1214 FILLER_21_169
*1215 FILLER_21_177
*1216 FILLER_21_189
*1217 FILLER_21_201
*1218 FILLER_21_213
*1219 FILLER_21_221
*1220 FILLER_21_233
*1221 FILLER_21_244
*1222 FILLER_21_256
*1223 FILLER_21_268
*1224 FILLER_21_27
*1225 FILLER_21_276
*1226 FILLER_21_287
*1227 FILLER_21_299
*1228 FILLER_21_3
*1229 FILLER_21_311
*1230 FILLER_21_323
*1231 FILLER_21_329
*1232 FILLER_21_332
*1233 FILLER_21_342
*1234 FILLER_21_354
*1235 FILLER_21_366
*1236 FILLER_21_378
*1237 FILLER_21_39
*1238 FILLER_21_390
*1239 FILLER_21_393
*1240 FILLER_21_405
*1241 FILLER_21_51
*1242 FILLER_21_55
*1243 FILLER_21_57
*1244 FILLER_21_69
*1245 FILLER_21_74
*1246 FILLER_21_80
*1247 FILLER_21_92
*1248 FILLER_22_103
*1249 FILLER_22_115
*1250 FILLER_22_127
*1251 FILLER_22_13
*1252 FILLER_22_139
*1253 FILLER_22_141
*1254 FILLER_22_163
*1255 FILLER_22_177
*1256 FILLER_22_181
*1257 FILLER_22_192
*1258 FILLER_22_197
*1259 FILLER_22_209
*1260 FILLER_22_221
*1261 FILLER_22_233
*1262 FILLER_22_245
*1263 FILLER_22_25
*1264 FILLER_22_251
*1265 FILLER_22_253
*1266 FILLER_22_265
*1267 FILLER_22_277
*1268 FILLER_22_282
*1269 FILLER_22_29
*1270 FILLER_22_294
*1271 FILLER_22_306
*1272 FILLER_22_309
*1273 FILLER_22_321
*1274 FILLER_22_325
*1275 FILLER_22_331
*1276 FILLER_22_338
*1277 FILLER_22_350
*1278 FILLER_22_355
*1279 FILLER_22_363
*1280 FILLER_22_365
*1281 FILLER_22_377
*1282 FILLER_22_389
*1283 FILLER_22_401
*1284 FILLER_22_41
*1285 FILLER_22_67
*1286 FILLER_22_7
*1287 FILLER_22_79
*1288 FILLER_22_83
*1289 FILLER_22_85
*1290 FILLER_23_108
*1291 FILLER_23_113
*1292 FILLER_23_125
*1293 FILLER_23_137
*1294 FILLER_23_149
*1295 FILLER_23_15
*1296 FILLER_23_163
*1297 FILLER_23_167
*1298 FILLER_23_169
*1299 FILLER_23_177
*1300 FILLER_23_188
*1301 FILLER_23_195
*1302 FILLER_23_207
*1303 FILLER_23_219
*1304 FILLER_23_223
*1305 FILLER_23_225
*1306 FILLER_23_237
*1307 FILLER_23_249
*1308 FILLER_23_261
*1309 FILLER_23_267
*1310 FILLER_23_27
*1311 FILLER_23_274
*1312 FILLER_23_291
*1313 FILLER_23_3
*1314 FILLER_23_303
*1315 FILLER_23_311
*1316 FILLER_23_317
*1317 FILLER_23_329
*1318 FILLER_23_335
*1319 FILLER_23_337
*1320 FILLER_23_348
*1321 FILLER_23_360
*1322 FILLER_23_375
*1323 FILLER_23_387
*1324 FILLER_23_39
*1325 FILLER_23_391
*1326 FILLER_23_393
*1327 FILLER_23_405
*1328 FILLER_23_51
*1329 FILLER_23_55
*1330 FILLER_23_57
*1331 FILLER_23_69
*1332 FILLER_23_81
*1333 FILLER_23_86
*1334 FILLER_24_108
*1335 FILLER_24_116
*1336 FILLER_24_128
*1337 FILLER_24_13
*1338 FILLER_24_153
*1339 FILLER_24_165
*1340 FILLER_24_177
*1341 FILLER_24_189
*1342 FILLER_24_195
*1343 FILLER_24_197
*1344 FILLER_24_209
*1345 FILLER_24_221
*1346 FILLER_24_233
*1347 FILLER_24_245
*1348 FILLER_24_25
*1349 FILLER_24_251
*1350 FILLER_24_253
*1351 FILLER_24_259
*1352 FILLER_24_271
*1353 FILLER_24_283
*1354 FILLER_24_29
*1355 FILLER_24_295
*1356 FILLER_24_307
*1357 FILLER_24_309
*1358 FILLER_24_323
*1359 FILLER_24_335
*1360 FILLER_24_347
*1361 FILLER_24_359
*1362 FILLER_24_363
*1363 FILLER_24_365
*1364 FILLER_24_377
*1365 FILLER_24_383
*1366 FILLER_24_396
*1367 FILLER_24_404
*1368 FILLER_24_41
*1369 FILLER_24_53
*1370 FILLER_24_65
*1371 FILLER_24_7
*1372 FILLER_24_77
*1373 FILLER_24_83
*1374 FILLER_24_85
*1375 FILLER_24_96
*1376 FILLER_25_103
*1377 FILLER_25_111
*1378 FILLER_25_123
*1379 FILLER_25_135
*1380 FILLER_25_147
*1381 FILLER_25_15
*1382 FILLER_25_159
*1383 FILLER_25_167
*1384 FILLER_25_169
*1385 FILLER_25_181
*1386 FILLER_25_193
*1387 FILLER_25_204
*1388 FILLER_25_21
*1389 FILLER_25_216
*1390 FILLER_25_225
*1391 FILLER_25_237
*1392 FILLER_25_249
*1393 FILLER_25_261
*1394 FILLER_25_276
*1395 FILLER_25_281
*1396 FILLER_25_293
*1397 FILLER_25_3
*1398 FILLER_25_301
*1399 FILLER_25_305
*1400 FILLER_25_314
*1401 FILLER_25_326
*1402 FILLER_25_33
*1403 FILLER_25_334
*1404 FILLER_25_337
*1405 FILLER_25_349
*1406 FILLER_25_361
*1407 FILLER_25_365
*1408 FILLER_25_373
*1409 FILLER_25_379
*1410 FILLER_25_391
*1411 FILLER_25_393
*1412 FILLER_25_405
*1413 FILLER_25_45
*1414 FILLER_25_53
*1415 FILLER_25_57
*1416 FILLER_25_69
*1417 FILLER_25_93
*1418 FILLER_26_11
*1419 FILLER_26_110
*1420 FILLER_26_113
*1421 FILLER_26_123
*1422 FILLER_26_135
*1423 FILLER_26_139
*1424 FILLER_26_141
*1425 FILLER_26_153
*1426 FILLER_26_159
*1427 FILLER_26_166
*1428 FILLER_26_178
*1429 FILLER_26_190
*1430 FILLER_26_197
*1431 FILLER_26_213
*1432 FILLER_26_224
*1433 FILLER_26_232
*1434 FILLER_26_239
*1435 FILLER_26_24
*1436 FILLER_26_251
*1437 FILLER_26_253
*1438 FILLER_26_265
*1439 FILLER_26_277
*1440 FILLER_26_289
*1441 FILLER_26_3
*1442 FILLER_26_301
*1443 FILLER_26_307
*1444 FILLER_26_309
*1445 FILLER_26_321
*1446 FILLER_26_333
*1447 FILLER_26_34
*1448 FILLER_26_344
*1449 FILLER_26_356
*1450 FILLER_26_360
*1451 FILLER_26_370
*1452 FILLER_26_388
*1453 FILLER_26_40
*1454 FILLER_26_400
*1455 FILLER_26_406
*1456 FILLER_26_52
*1457 FILLER_26_59
*1458 FILLER_26_67
*1459 FILLER_26_79
*1460 FILLER_26_83
*1461 FILLER_26_85
*1462 FILLER_26_98
*1463 FILLER_27_105
*1464 FILLER_27_111
*1465 FILLER_27_113
*1466 FILLER_27_125
*1467 FILLER_27_13
*1468 FILLER_27_137
*1469 FILLER_27_149
*1470 FILLER_27_161
*1471 FILLER_27_167
*1472 FILLER_27_169
*1473 FILLER_27_177
*1474 FILLER_27_186
*1475 FILLER_27_195
*1476 FILLER_27_207
*1477 FILLER_27_219
*1478 FILLER_27_223
*1479 FILLER_27_225
*1480 FILLER_27_233
*1481 FILLER_27_245
*1482 FILLER_27_25
*1483 FILLER_27_257
*1484 FILLER_27_269
*1485 FILLER_27_277
*1486 FILLER_27_281
*1487 FILLER_27_287
*1488 FILLER_27_299
*1489 FILLER_27_313
*1490 FILLER_27_325
*1491 FILLER_27_333
*1492 FILLER_27_337
*1493 FILLER_27_343
*1494 FILLER_27_352
*1495 FILLER_27_364
*1496 FILLER_27_37
*1497 FILLER_27_376
*1498 FILLER_27_380
*1499 FILLER_27_393
*1500 FILLER_27_405
*1501 FILLER_27_49
*1502 FILLER_27_55
*1503 FILLER_27_57
*1504 FILLER_27_69
*1505 FILLER_27_7
*1506 FILLER_27_81
*1507 FILLER_27_93
*1508 FILLER_28_102
*1509 FILLER_28_114
*1510 FILLER_28_126
*1511 FILLER_28_138
*1512 FILLER_28_141
*1513 FILLER_28_147
*1514 FILLER_28_15
*1515 FILLER_28_151
*1516 FILLER_28_157
*1517 FILLER_28_169
*1518 FILLER_28_181
*1519 FILLER_28_193
*1520 FILLER_28_197
*1521 FILLER_28_209
*1522 FILLER_28_221
*1523 FILLER_28_233
*1524 FILLER_28_245
*1525 FILLER_28_251
*1526 FILLER_28_253
*1527 FILLER_28_266
*1528 FILLER_28_27
*1529 FILLER_28_278
*1530 FILLER_28_285
*1531 FILLER_28_29
*1532 FILLER_28_296
*1533 FILLER_28_3
*1534 FILLER_28_309
*1535 FILLER_28_321
*1536 FILLER_28_333
*1537 FILLER_28_345
*1538 FILLER_28_357
*1539 FILLER_28_363
*1540 FILLER_28_365
*1541 FILLER_28_377
*1542 FILLER_28_389
*1543 FILLER_28_401
*1544 FILLER_28_42
*1545 FILLER_28_54
*1546 FILLER_28_66
*1547 FILLER_28_70
*1548 FILLER_28_82
*1549 FILLER_28_90
*1550 FILLER_29_105
*1551 FILLER_29_111
*1552 FILLER_29_113
*1553 FILLER_29_125
*1554 FILLER_29_13
*1555 FILLER_29_131
*1556 FILLER_29_137
*1557 FILLER_29_147
*1558 FILLER_29_159
*1559 FILLER_29_167
*1560 FILLER_29_169
*1561 FILLER_29_181
*1562 FILLER_29_193
*1563 FILLER_29_205
*1564 FILLER_29_217
*1565 FILLER_29_223
*1566 FILLER_29_225
*1567 FILLER_29_237
*1568 FILLER_29_249
*1569 FILLER_29_261
*1570 FILLER_29_265
*1571 FILLER_29_277
*1572 FILLER_29_281
*1573 FILLER_29_293
*1574 FILLER_29_305
*1575 FILLER_29_31
*1576 FILLER_29_317
*1577 FILLER_29_329
*1578 FILLER_29_335
*1579 FILLER_29_337
*1580 FILLER_29_349
*1581 FILLER_29_361
*1582 FILLER_29_373
*1583 FILLER_29_385
*1584 FILLER_29_391
*1585 FILLER_29_393
*1586 FILLER_29_405
*1587 FILLER_29_43
*1588 FILLER_29_55
*1589 FILLER_29_57
*1590 FILLER_29_68
*1591 FILLER_29_7
*1592 FILLER_29_72
*1593 FILLER_29_93
*1594 FILLER_2_101
*1595 FILLER_2_114
*1596 FILLER_2_124
*1597 FILLER_2_130
*1598 FILLER_2_138
*1599 FILLER_2_141
*1600 FILLER_2_15
*1601 FILLER_2_153
*1602 FILLER_2_165
*1603 FILLER_2_172
*1604 FILLER_2_184
*1605 FILLER_2_197
*1606 FILLER_2_20
*1607 FILLER_2_209
*1608 FILLER_2_217
*1609 FILLER_2_224
*1610 FILLER_2_236
*1611 FILLER_2_242
*1612 FILLER_2_245
*1613 FILLER_2_251
*1614 FILLER_2_253
*1615 FILLER_2_265
*1616 FILLER_2_277
*1617 FILLER_2_29
*1618 FILLER_2_293
*1619 FILLER_2_299
*1620 FILLER_2_307
*1621 FILLER_2_309
*1622 FILLER_2_317
*1623 FILLER_2_334
*1624 FILLER_2_344
*1625 FILLER_2_356
*1626 FILLER_2_365
*1627 FILLER_2_377
*1628 FILLER_2_385
*1629 FILLER_2_392
*1630 FILLER_2_400
*1631 FILLER_2_403
*1632 FILLER_2_41
*1633 FILLER_2_53
*1634 FILLER_2_65
*1635 FILLER_2_7
*1636 FILLER_2_77
*1637 FILLER_2_83
*1638 FILLER_2_85
*1639 FILLER_2_97
*1640 FILLER_30_102
*1641 FILLER_30_123
*1642 FILLER_30_135
*1643 FILLER_30_139
*1644 FILLER_30_141
*1645 FILLER_30_15
*1646 FILLER_30_153
*1647 FILLER_30_165
*1648 FILLER_30_177
*1649 FILLER_30_189
*1650 FILLER_30_195
*1651 FILLER_30_197
*1652 FILLER_30_209
*1653 FILLER_30_227
*1654 FILLER_30_239
*1655 FILLER_30_251
*1656 FILLER_30_258
*1657 FILLER_30_27
*1658 FILLER_30_274
*1659 FILLER_30_286
*1660 FILLER_30_298
*1661 FILLER_30_3
*1662 FILLER_30_306
*1663 FILLER_30_309
*1664 FILLER_30_32
*1665 FILLER_30_321
*1666 FILLER_30_333
*1667 FILLER_30_345
*1668 FILLER_30_357
*1669 FILLER_30_363
*1670 FILLER_30_365
*1671 FILLER_30_377
*1672 FILLER_30_385
*1673 FILLER_30_398
*1674 FILLER_30_406
*1675 FILLER_30_44
*1676 FILLER_30_56
*1677 FILLER_30_69
*1678 FILLER_30_81
*1679 FILLER_30_85
*1680 FILLER_30_93
*1681 FILLER_30_98
*1682 FILLER_31_100
*1683 FILLER_31_106
*1684 FILLER_31_113
*1685 FILLER_31_125
*1686 FILLER_31_137
*1687 FILLER_31_149
*1688 FILLER_31_15
*1689 FILLER_31_161
*1690 FILLER_31_167
*1691 FILLER_31_174
*1692 FILLER_31_186
*1693 FILLER_31_198
*1694 FILLER_31_210
*1695 FILLER_31_222
*1696 FILLER_31_228