*SPEF "ieee 1481-1999"
*DESIGN "pixel_macro"
*DATE "11:11:11 Fri 11 11, 1111"
*VENDOR "OpenRCX"
*PROGRAM "Parallel Extraction"
*VERSION "1.0"
*DESIGN_FLOW "NAME_SCOPE LOCAL" "PIN_CAP NONE"
*DIVIDER /
*DELIMITER :
*BUS_DELIMITER []
*T_UNIT 1 NS
*C_UNIT 1 PF
*R_UNIT 1 OHM
*L_UNIT 1 HENRY

*NAME_MAP
*1 io_in[0]
*2 io_in[10]
*3 io_in[11]
*4 io_in[12]
*5 io_in[13]
*6 io_in[14]
*7 io_in[15]
*8 io_in[16]
*9 io_in[17]
*10 io_in[18]
*11 io_in[19]
*12 io_in[1]
*13 io_in[20]
*14 io_in[21]
*15 io_in[22]
*16 io_in[23]
*17 io_in[24]
*18 io_in[25]
*19 io_in[26]
*20 io_in[2]
*21 io_in[3]
*22 io_in[4]
*23 io_in[5]
*24 io_in[6]
*25 io_in[7]
*26 io_in[8]
*27 io_in[9]
*28 net221
*29 net231
*30 net232
*31 net233
*32 net234
*33 net235
*34 net236
*35 net237
*36 net238
*37 net239
*38 net240
*39 net222
*40 net241
*41 net242
*42 net243
*43 net244
*44 net245
*45 net246
*46 net247
*47 net223
*48 net224
*49 net225
*50 net226
*51 net227
*52 net228
*53 net229
*54 net230
*55 net194
*56 net204
*57 net205
*58 net206
*59 net207
*60 net208
*61 net209
*62 net210
*63 net211
*64 net212
*65 net213
*66 net195
*67 net214
*68 net215
*69 net216
*70 net217
*71 net218
*72 net219
*73 net220
*74 net196
*75 net197
*76 net198
*77 net199
*78 net200
*79 net201
*80 net202
*81 net203
*82 net191
*83 net192
*84 net193
*85 la_data_in[0]
*86 la_data_in[100]
*87 la_data_in[101]
*88 la_data_in[102]
*89 la_data_in[103]
*90 la_data_in[104]
*91 la_data_in[105]
*92 la_data_in[106]
*93 la_data_in[107]
*94 la_data_in[108]
*95 la_data_in[109]
*96 la_data_in[10]
*97 la_data_in[110]
*98 la_data_in[111]
*99 la_data_in[112]
*100 la_data_in[113]
*101 la_data_in[114]
*102 la_data_in[115]
*103 la_data_in[116]
*104 la_data_in[117]
*105 la_data_in[118]
*106 la_data_in[119]
*107 la_data_in[11]
*108 la_data_in[120]
*109 la_data_in[121]
*110 la_data_in[122]
*111 la_data_in[123]
*112 la_data_in[124]
*113 la_data_in[125]
*114 la_data_in[126]
*115 la_data_in[127]
*116 la_data_in[12]
*117 la_data_in[13]
*118 la_data_in[14]
*119 la_data_in[15]
*120 la_data_in[16]
*121 la_data_in[17]
*122 la_data_in[18]
*123 la_data_in[19]
*124 la_data_in[1]
*125 la_data_in[20]
*126 la_data_in[21]
*127 la_data_in[22]
*128 la_data_in[23]
*129 la_data_in[24]
*130 la_data_in[25]
*131 la_data_in[26]
*132 la_data_in[27]
*133 la_data_in[28]
*134 la_data_in[29]
*135 la_data_in[2]
*136 la_data_in[30]
*137 la_data_in[31]
*138 la_data_in[32]
*139 la_data_in[33]
*140 la_data_in[34]
*141 la_data_in[35]
*142 la_data_in[36]
*143 la_data_in[37]
*144 la_data_in[38]
*145 la_data_in[39]
*146 la_data_in[3]
*147 la_data_in[40]
*148 la_data_in[41]
*149 la_data_in[42]
*150 la_data_in[43]
*151 la_data_in[44]
*152 la_data_in[45]
*153 la_data_in[46]
*154 la_data_in[47]
*155 la_data_in[48]
*156 la_data_in[49]
*157 la_data_in[4]
*158 la_data_in[50]
*159 la_data_in[51]
*160 la_data_in[52]
*161 la_data_in[53]
*162 la_data_in[54]
*163 la_data_in[55]
*164 la_data_in[56]
*165 la_data_in[57]
*166 la_data_in[58]
*167 la_data_in[59]
*168 la_data_in[5]
*169 la_data_in[60]
*170 la_data_in[61]
*171 la_data_in[62]
*172 la_data_in[63]
*173 la_data_in[64]
*174 la_data_in[65]
*175 la_data_in[66]
*176 la_data_in[67]
*177 la_data_in[68]
*178 la_data_in[69]
*179 la_data_in[6]
*180 la_data_in[70]
*181 la_data_in[71]
*182 la_data_in[72]
*183 la_data_in[73]
*184 la_data_in[74]
*185 la_data_in[75]
*186 la_data_in[76]
*187 la_data_in[77]
*188 la_data_in[78]
*189 la_data_in[79]
*190 la_data_in[7]
*191 la_data_in[80]
*192 la_data_in[81]
*193 la_data_in[82]
*194 la_data_in[83]
*195 la_data_in[84]
*196 la_data_in[85]
*197 la_data_in[86]
*198 la_data_in[87]
*199 la_data_in[88]
*200 la_data_in[89]
*201 la_data_in[8]
*202 la_data_in[90]
*203 la_data_in[91]
*204 la_data_in[92]
*205 la_data_in[93]
*206 la_data_in[94]
*207 la_data_in[95]
*208 la_data_in[96]
*209 la_data_in[97]
*210 la_data_in[98]
*211 la_data_in[99]
*212 la_data_in[9]
*213 la_data_out[0]
*214 net163
*215 net164
*216 net165
*217 net166
*218 net167
*219 net168
*220 net169
*221 net170
*222 net171
*223 net172
*224 la_data_out[10]
*225 net173
*226 net174
*227 net175
*228 net176
*229 net177
*230 net178
*231 net179
*232 net180
*233 net181
*234 net182
*235 la_data_out[11]
*236 net183
*237 net184
*238 net185
*239 net186
*240 net187
*241 net188
*242 net189
*243 net190
*244 la_data_out[12]
*245 la_data_out[13]
*246 la_data_out[14]
*247 la_data_out[15]
*248 la_data_out[16]
*249 la_data_out[17]
*250 la_data_out[18]
*251 la_data_out[19]
*252 la_data_out[1]
*253 la_data_out[20]
*254 la_data_out[21]
*255 net85
*256 net86
*257 net87
*258 net88
*259 net89
*260 net90
*261 net91
*262 net92
*263 la_data_out[2]
*264 net93
*265 net94
*266 net95
*267 net96
*268 net97
*269 net98
*270 net99
*271 net100
*272 net101
*273 net102
*274 la_data_out[3]
*275 net103
*276 net104
*277 net105
*278 net106
*279 net107
*280 net108
*281 net109
*282 net110
*283 net111
*284 net112
*285 net81
*286 net113
*287 net114
*288 net115
*289 net116
*290 net117
*291 net118
*292 net119
*293 net120
*294 net121
*295 net122
*296 net82
*297 net123
*298 net124
*299 net125
*300 net126
*301 net127
*302 net128
*303 net129
*304 net130
*305 net131
*306 net132
*307 net83
*308 net133
*309 net134
*310 net135
*311 net136
*312 net137
*313 net138
*314 net139
*315 net140
*316 net141
*317 net142
*318 net84
*319 net143
*320 net144
*321 net145
*322 net146
*323 net147
*324 net148
*325 net149
*326 net150
*327 net151
*328 net152
*329 la_data_out[8]
*330 net153
*331 net154
*332 net155
*333 net156
*334 net157
*335 net158
*336 net159
*337 net160
*338 net161
*339 net162
*340 la_data_out[9]
*341 la_oenb[0]
*342 la_oenb[100]
*343 la_oenb[101]
*344 la_oenb[102]
*345 la_oenb[103]
*346 la_oenb[104]
*347 la_oenb[105]
*348 la_oenb[106]
*349 la_oenb[107]
*350 la_oenb[108]
*351 la_oenb[109]
*352 la_oenb[10]
*353 la_oenb[110]
*354 la_oenb[111]
*355 la_oenb[112]
*356 la_oenb[113]
*357 la_oenb[114]
*358 la_oenb[115]
*359 la_oenb[116]
*360 la_oenb[117]
*361 la_oenb[118]
*362 la_oenb[119]
*363 la_oenb[11]
*364 la_oenb[120]
*365 la_oenb[121]
*366 la_oenb[122]
*367 la_oenb[123]
*368 la_oenb[124]
*369 la_oenb[125]
*370 la_oenb[126]
*371 la_oenb[127]
*372 la_oenb[12]
*373 la_oenb[13]
*374 la_oenb[14]
*375 la_oenb[15]
*376 la_oenb[16]
*377 la_oenb[17]
*378 la_oenb[18]
*379 la_oenb[19]
*380 la_oenb[1]
*381 la_oenb[20]
*382 la_oenb[21]
*383 la_oenb[22]
*384 la_oenb[23]
*385 la_oenb[24]
*386 la_oenb[25]
*387 la_oenb[26]
*388 la_oenb[27]
*389 la_oenb[28]
*390 la_oenb[29]
*391 la_oenb[2]
*392 la_oenb[30]
*393 la_oenb[31]
*394 la_oenb[32]
*395 la_oenb[33]
*396 la_oenb[34]
*397 la_oenb[35]
*398 la_oenb[36]
*399 la_oenb[37]
*400 la_oenb[38]
*401 la_oenb[39]
*402 la_oenb[3]
*403 la_oenb[40]
*404 la_oenb[41]
*405 la_oenb[42]
*406 la_oenb[43]
*407 la_oenb[44]
*408 la_oenb[45]
*409 la_oenb[46]
*410 la_oenb[47]
*411 la_oenb[48]
*412 la_oenb[49]
*413 la_oenb[4]
*414 la_oenb[50]
*415 la_oenb[51]
*416 la_oenb[52]
*417 la_oenb[53]
*418 la_oenb[54]
*419 la_oenb[55]
*420 la_oenb[56]
*421 la_oenb[57]
*422 la_oenb[58]
*423 la_oenb[59]
*424 la_oenb[5]
*425 la_oenb[60]
*426 la_oenb[61]
*427 la_oenb[62]
*428 la_oenb[63]
*429 la_oenb[64]
*430 la_oenb[65]
*431 la_oenb[66]
*432 la_oenb[67]
*433 la_oenb[68]
*434 la_oenb[69]
*435 la_oenb[6]
*436 la_oenb[70]
*437 la_oenb[71]
*438 la_oenb[72]
*439 la_oenb[73]
*440 la_oenb[74]
*441 la_oenb[75]
*442 la_oenb[76]
*443 la_oenb[77]
*444 la_oenb[78]
*445 la_oenb[79]
*446 la_oenb[7]
*447 la_oenb[80]
*448 la_oenb[81]
*449 la_oenb[82]
*450 la_oenb[83]
*451 la_oenb[84]
*452 la_oenb[85]
*453 la_oenb[86]
*454 la_oenb[87]
*455 la_oenb[88]
*456 la_oenb[89]
*457 la_oenb[8]
*458 la_oenb[90]
*459 la_oenb[91]
*460 la_oenb[92]
*461 la_oenb[93]
*462 la_oenb[94]
*463 la_oenb[95]
*464 la_oenb[96]
*465 la_oenb[97]
*466 la_oenb[98]
*467 la_oenb[99]
*468 la_oenb[9]
*469 net248
*470 pxl_start_in_path
*471 pxl_start_out_path
*474 wb_clk_i
*475 wb_rst_i
*476 net249
*477 wbs_adr_i[0]
*478 wbs_adr_i[10]
*479 wbs_adr_i[11]
*480 wbs_adr_i[12]
*481 wbs_adr_i[13]
*482 wbs_adr_i[14]
*483 wbs_adr_i[15]
*484 wbs_adr_i[16]
*485 wbs_adr_i[17]
*486 wbs_adr_i[18]
*487 wbs_adr_i[19]
*488 wbs_adr_i[1]
*489 wbs_adr_i[20]
*490 wbs_adr_i[21]
*491 wbs_adr_i[22]
*492 wbs_adr_i[23]
*493 wbs_adr_i[24]
*494 wbs_adr_i[25]
*495 wbs_adr_i[26]
*496 wbs_adr_i[27]
*497 wbs_adr_i[28]
*498 wbs_adr_i[29]
*499 wbs_adr_i[2]
*500 wbs_adr_i[30]
*501 wbs_adr_i[31]
*502 wbs_adr_i[3]
*503 wbs_adr_i[4]
*504 wbs_adr_i[5]
*505 wbs_adr_i[6]
*506 wbs_adr_i[7]
*507 wbs_adr_i[8]
*508 wbs_adr_i[9]
*509 wbs_cyc_i
*510 wbs_dat_i[0]
*511 wbs_dat_i[10]
*512 wbs_dat_i[11]
*513 wbs_dat_i[12]
*514 wbs_dat_i[13]
*515 wbs_dat_i[14]
*516 wbs_dat_i[15]
*517 wbs_dat_i[16]
*518 wbs_dat_i[17]
*519 wbs_dat_i[18]
*520 wbs_dat_i[19]
*521 wbs_dat_i[1]
*522 wbs_dat_i[20]
*523 wbs_dat_i[21]
*524 wbs_dat_i[22]
*525 wbs_dat_i[23]
*526 wbs_dat_i[24]
*527 wbs_dat_i[25]
*528 wbs_dat_i[26]
*529 wbs_dat_i[27]
*530 wbs_dat_i[28]
*531 wbs_dat_i[29]
*532 wbs_dat_i[2]
*533 wbs_dat_i[30]
*534 wbs_dat_i[31]
*535 wbs_dat_i[3]
*536 wbs_dat_i[4]
*537 wbs_dat_i[5]
*538 wbs_dat_i[6]
*539 wbs_dat_i[7]
*540 wbs_dat_i[8]
*541 wbs_dat_i[9]
*542 wbs_dat_o[0]
*543 wbs_dat_o[10]
*544 wbs_dat_o[11]
*545 wbs_dat_o[12]
*546 wbs_dat_o[13]
*547 wbs_dat_o[14]
*548 wbs_dat_o[15]
*549 wbs_dat_o[16]
*550 wbs_dat_o[17]
*551 wbs_dat_o[18]
*552 wbs_dat_o[19]
*553 wbs_dat_o[1]
*554 wbs_dat_o[20]
*555 wbs_dat_o[21]
*556 wbs_dat_o[22]
*557 wbs_dat_o[23]
*558 wbs_dat_o[24]
*559 net250
*560 net251
*561 net252
*562 net253
*563 net254
*564 wbs_dat_o[2]
*565 net255
*566 net256
*567 wbs_dat_o[3]
*568 wbs_dat_o[4]
*569 wbs_dat_o[5]
*570 wbs_dat_o[6]
*571 wbs_dat_o[7]
*572 wbs_dat_o[8]
*573 wbs_dat_o[9]
*574 wbs_sel_i[0]
*575 wbs_sel_i[1]
*576 wbs_sel_i[2]
*577 wbs_sel_i[3]
*578 wbs_stb_i
*579 wbs_we_i
*580 _000_
*581 _001_
*582 _002_
*583 _003_
*584 _004_
*585 _005_
*586 _006_
*587 _007_
*588 _008_
*589 _009_
*590 _010_
*591 _011_
*592 _012_
*593 _013_
*594 _014_
*595 _015_
*596 _016_
*597 _017_
*598 _018_
*599 _019_
*600 _020_
*601 _021_
*602 _022_
*603 _023_
*604 _024_
*605 _025_
*606 _026_
*607 _027_
*608 _028_
*609 _029_
*610 _030_
*611 _031_
*612 _032_
*613 _033_
*614 _034_
*615 _035_
*616 _036_
*617 _037_
*618 _038_
*619 _039_
*620 _040_
*621 _041_
*622 _042_
*623 _043_
*624 _044_
*625 _045_
*626 _046_
*627 _047_
*628 _048_
*629 _049_
*630 _050_
*631 _051_
*632 _052_
*633 _053_
*634 _054_
*635 _055_
*636 _056_
*637 _057_
*638 _058_
*639 _059_
*640 _060_
*641 _061_
*642 _062_
*643 _063_
*644 _064_
*645 _065_
*646 _066_
*647 _067_
*648 _068_
*649 _069_
*650 _070_
*651 _071_
*652 _072_
*653 _073_
*654 _074_
*655 _075_
*656 _076_
*657 _077_
*658 _078_
*659 _079_
*660 _080_
*661 _081_
*662 _082_
*663 _083_
*664 _084_
*665 _085_
*666 _086_
*667 _087_
*668 _088_
*669 _089_
*670 _090_
*671 _091_
*672 _092_
*673 _093_
*674 _094_
*675 _095_
*676 _096_
*677 _097_
*678 _098_
*679 _099_
*680 _100_
*681 _101_
*682 _102_
*683 _103_
*684 _104_
*685 _105_
*686 _106_
*687 _107_
*688 _108_
*689 _109_
*690 _110_
*691 _111_
*692 _112_
*693 _113_
*694 _114_
*695 _115_
*696 _116_
*697 _117_
*698 _118_
*699 _119_
*700 _120_
*701 _121_
*702 _122_
*703 _123_
*704 _124_
*705 _125_
*706 _126_
*707 _127_
*708 _128_
*709 _129_
*710 _130_
*711 _131_
*712 _132_
*713 _133_
*714 _134_
*715 _135_
*716 _136_
*717 _137_
*718 _138_
*719 _139_
*720 _140_
*721 _141_
*722 _142_
*723 _143_
*724 _144_
*725 _145_
*726 _146_
*727 _147_
*728 _148_
*729 _149_
*730 _150_
*731 _151_
*732 _152_
*733 _153_
*734 _154_
*735 _155_
*736 _156_
*737 _157_
*738 _158_
*739 _159_
*740 _160_
*741 _161_
*742 _162_
*743 _163_
*744 _164_
*745 _165_
*746 _166_
*747 _167_
*748 _168_
*749 _169_
*750 _170_
*751 _171_
*752 _172_
*753 _173_
*754 _174_
*755 _175_
*756 _176_
*757 _177_
*758 _178_
*759 _179_
*760 _180_
*761 _181_
*762 _182_
*763 _183_
*764 _184_
*765 _185_
*766 _186_
*767 _187_
*768 _188_
*769 _189_
*770 _190_
*771 _191_
*772 _192_
*773 _193_
*774 _194_
*775 _195_
*776 _196_
*777 _197_
*778 _198_
*779 _199_
*780 _200_
*781 _201_
*782 _202_
*783 _203_
*784 _204_
*785 _205_
*786 _206_
*787 _207_
*788 _208_
*789 clknet_0_wb_clk_i
*790 clknet_3_0__leaf_wb_clk_i
*791 clknet_3_1__leaf_wb_clk_i
*792 clknet_3_2__leaf_wb_clk_i
*793 clknet_3_3__leaf_wb_clk_i
*794 clknet_3_4__leaf_wb_clk_i
*795 clknet_3_5__leaf_wb_clk_i
*796 clknet_3_6__leaf_wb_clk_i
*797 clknet_3_7__leaf_wb_clk_i
*798 net1
*799 net10
*800 net11
*801 net12
*802 net13
*803 net14
*804 net15
*805 net16
*806 net17
*807 net18
*808 net19
*809 net2
*810 net20
*811 net21
*812 net22
*813 net23
*814 net24
*815 net25
*816 net26
*817 net27
*818 net28
*819 net29
*820 net3
*821 net30
*822 net31
*823 net32
*824 net33
*825 net34
*826 net35
*827 net36
*828 net37
*829 net38
*830 net39
*831 net4
*832 net40
*833 net41
*834 net42
*835 net43
*836 net44
*837 net45
*838 net46
*839 net47
*840 net48
*841 net49
*842 net5
*843 net50
*844 net51
*845 net52
*846 net53
*847 net54
*848 net55
*849 net56
*850 net57
*851 net58
*852 net59
*853 net6
*854 net60
*855 net61
*856 net62
*857 net63
*858 net64
*859 net65
*860 net66
*861 net67
*862 net68
*863 net69
*864 net7
*865 net70
*866 net71
*867 net72
*868 net73
*869 net74
*870 net75
*871 net76
*872 net77
*873 net78
*874 net79
*875 net8
*876 net80
*877 net9
*878 pixel_fsm0\.adj_max_clk\[0\]
*879 pixel_fsm0\.adj_max_clk\[1\]
*880 pixel_fsm0\.adj_max_clk\[2\]
*881 pixel_fsm0\.adj_max_clk\[3\]
*882 pixel_fsm0\.adj_max_clk\[4\]
*883 pixel_fsm0\.adj_max_clk\[5\]
*884 pixel_fsm0\.adj_max_clk\[6\]
*885 pixel_fsm0\.adj_max_clk\[7\]
*886 pixel_fsm0\.adj_max_clk\[8\]
*887 pixel_fsm0\.adj_max_clk\[9\]
*888 pixel_fsm0\.adj_timer_m_i
*889 pixel_fsm0\.data_in
*890 pixel_fsm0\.inst1\.next_state\[0\]
*891 pixel_fsm0\.inst1\.next_state\[1\]
*892 pixel_fsm0\.inst1\.next_state\[2\]
*893 pixel_fsm0\.inst1\.pxl_start_i
*894 pixel_fsm0\.inst1\.state\[0\]
*895 pixel_fsm0\.inst1\.state\[1\]
*896 pixel_fsm0\.inst1\.state\[2\]
*897 pixel_fsm0\.inst2\.loc_max_clk\[0\]
*898 pixel_fsm0\.inst2\.loc_max_clk\[1\]
*899 pixel_fsm0\.inst2\.loc_max_clk\[2\]
*900 pixel_fsm0\.inst2\.loc_max_clk\[3\]
*901 pixel_fsm0\.inst2\.loc_max_clk\[4\]
*902 pixel_fsm0\.inst2\.loc_max_clk\[5\]
*903 pixel_fsm0\.inst2\.loc_max_clk\[6\]
*904 pixel_fsm0\.inst2\.loc_max_clk\[7\]
*905 pixel_fsm0\.inst2\.loc_max_clk\[8\]
*906 pixel_fsm0\.inst2\.loc_max_clk\[9\]
*907 pixel_fsm0\.inst4\.pixel_count_max
*908 pixel_fsm0\.loc_timer_m_i
*909 pixel_fsm0\.pxl_done_i
*910 ANTENNA__250__B1
*911 ANTENNA__252__A2
*912 ANTENNA__257__A
*913 ANTENNA__264__A
*914 ANTENNA__265__A
*915 ANTENNA__270__A
*916 ANTENNA__272__A1
*917 ANTENNA__272__C1
*918 ANTENNA__274__C1
*919 ANTENNA__276__C1
*920 ANTENNA__278__C1
*921 ANTENNA__281__A
*922 ANTENNA__284__A
*923 ANTENNA__296__A
*924 ANTENNA__299__A
*925 ANTENNA__311__A
*926 ANTENNA__314__A
*927 ANTENNA__326__A
*928 ANTENNA__329__A
*929 ANTENNA__344__A
*930 ANTENNA__350__A
*931 ANTENNA__355__A
*932 ANTENNA__395__A
*933 ANTENNA__409__A
*934 ANTENNA__420__C1
*935 ANTENNA__446__SET_B
*936 ANTENNA_clkbuf_0_wb_clk_i_A
*937 ANTENNA_input10_A
*938 ANTENNA_input11_A
*939 ANTENNA_input12_A
*940 ANTENNA_input13_A
*941 ANTENNA_input14_A
*942 ANTENNA_input15_A
*943 ANTENNA_input16_A
*944 ANTENNA_input17_A
*945 ANTENNA_input18_A
*946 ANTENNA_input19_A
*947 ANTENNA_input1_A
*948 ANTENNA_input20_A
*949 ANTENNA_input21_A
*950 ANTENNA_input22_A
*951 ANTENNA_input23_A
*952 ANTENNA_input24_A
*953 ANTENNA_input25_A
*954 ANTENNA_input26_A
*955 ANTENNA_input27_A
*956 ANTENNA_input28_A
*957 ANTENNA_input29_A
*958 ANTENNA_input2_A
*959 ANTENNA_input30_A
*960 ANTENNA_input31_A
*961 ANTENNA_input32_A
*962 ANTENNA_input33_A
*963 ANTENNA_input34_A
*964 ANTENNA_input3_A
*965 ANTENNA_input4_A
*966 ANTENNA_input5_A
*967 ANTENNA_input6_A
*968 ANTENNA_input7_A
*969 ANTENNA_input8_A
*970 ANTENNA_input9_A
*971 ANTENNA_output45_A
*972 FILLER_0_100
*973 FILLER_0_108
*974 FILLER_0_11
*975 FILLER_0_115
*976 FILLER_0_123
*977 FILLER_0_131
*978 FILLER_0_136
*979 FILLER_0_149
*980 FILLER_0_156
*981 FILLER_0_164
*982 FILLER_0_17
*983 FILLER_0_173
*984 FILLER_0_183
*985 FILLER_0_187
*986 FILLER_0_192
*987 FILLER_0_197
*988 FILLER_0_204
*989 FILLER_0_212
*990 FILLER_0_220
*991 FILLER_0_225
*992 FILLER_0_232
*993 FILLER_0_24
*994 FILLER_0_240
*995 FILLER_0_248
*996 FILLER_0_253
*997 FILLER_0_260
*998 FILLER_0_268
*999 FILLER_0_276
*1000 FILLER_0_281
*1001 FILLER_0_289
*1002 FILLER_0_297
*1003 FILLER_0_304
*1004 FILLER_0_31
*1005 FILLER_0_311
*1006 FILLER_0_318
*1007 FILLER_0_325
*1008 FILLER_0_332
*1009 FILLER_0_337
*1010 FILLER_0_346
*1011 FILLER_0_353
*1012 FILLER_0_360
*1013 FILLER_0_365
*1014 FILLER_0_369
*1015 FILLER_0_376
*1016 FILLER_0_38
*1017 FILLER_0_383
*1018 FILLER_0_391
*1019 FILLER_0_396
*1020 FILLER_0_403
*1021 FILLER_0_410
*1022 FILLER_0_418
*1023 FILLER_0_424
*1024 FILLER_0_431
*1025 FILLER_0_438
*1026 FILLER_0_446
*1027 FILLER_0_45
*1028 FILLER_0_452
*1029 FILLER_0_459
*1030 FILLER_0_466
*1031 FILLER_0_474
*1032 FILLER_0_480
*1033 FILLER_0_487
*1034 FILLER_0_494
*1035 FILLER_0_5
*1036 FILLER_0_502
*1037 FILLER_0_508
*1038 FILLER_0_515
*1039 FILLER_0_52
*1040 FILLER_0_522
*1041 FILLER_0_530
*1042 FILLER_0_536
*1043 FILLER_0_543
*1044 FILLER_0_550
*1045 FILLER_0_558
*1046 FILLER_0_564
*1047 FILLER_0_571
*1048 FILLER_0_578
*1049 FILLER_0_586
*1050 FILLER_0_592
*1051 FILLER_0_599
*1052 FILLER_0_60
*1053 FILLER_0_606
*1054 FILLER_0_614
*1055 FILLER_0_620
*1056 FILLER_0_627
*1057 FILLER_0_634
*1058 FILLER_0_642
*1059 FILLER_0_645
*1060 FILLER_0_657
*1061 FILLER_0_669
*1062 FILLER_0_673
*1063 FILLER_0_685
*1064 FILLER_0_697
*1065 FILLER_0_701
*1066 FILLER_0_713
*1067 FILLER_0_725
*1068 FILLER_0_729
*1069 FILLER_0_80
*1070 FILLER_0_85
*1071 FILLER_0_92
*1072 FILLER_100_109
*1073 FILLER_100_121
*1074 FILLER_100_133
*1075 FILLER_100_139
*1076 FILLER_100_141
*1077 FILLER_100_15
*1078 FILLER_100_153
*1079 FILLER_100_165
*1080 FILLER_100_177
*1081 FILLER_100_189
*1082 FILLER_100_195
*1083 FILLER_100_197
*1084 FILLER_100_209
*1085 FILLER_100_221
*1086 FILLER_100_233
*1087 FILLER_100_245
*1088 FILLER_100_251
*1089 FILLER_100_253
*1090 FILLER_100_265
*1091 FILLER_100_27
*1092 FILLER_100_277
*1093 FILLER_100_289
*1094 FILLER_100_29
*1095 FILLER_100_3
*1096 FILLER_100_301
*1097 FILLER_100_307
*1098 FILLER_100_309
*1099 FILLER_100_321
*1100 FILLER_100_333
*1101 FILLER_100_345
*1102 FILLER_100_357
*1103 FILLER_100_363
*1104 FILLER_100_365
*1105 FILLER_100_377
*1106 FILLER_100_389
*1107 FILLER_100_401
*1108 FILLER_100_41
*1109 FILLER_100_413
*1110 FILLER_100_419
*1111 FILLER_100_421
*1112 FILLER_100_433
*1113 FILLER_100_445
*1114 FILLER_100_457
*1115 FILLER_100_469
*1116 FILLER_100_475
*1117 FILLER_100_477
*1118 FILLER_100_489
*1119 FILLER_100_501
*1120 FILLER_100_513
*1121 FILLER_100_525
*1122 FILLER_100_53
*1123 FILLER_100_531
*1124 FILLER_100_533
*1125 FILLER_100_545
*1126 FILLER_100_557
*1127 FILLER_100_569
*1128 FILLER_100_581
*1129 FILLER_100_587
*1130 FILLER_100_589
*1131 FILLER_100_601
*1132 FILLER_100_613
*1133 FILLER_100_625
*1134 FILLER_100_637
*1135 FILLER_100_643
*1136 FILLER_100_645
*1137 FILLER_100_65
*1138 FILLER_100_657
*1139 FILLER_100_669
*1140 FILLER_100_681
*1141 FILLER_100_693
*1142 FILLER_100_699
*1143 FILLER_100_701
*1144 FILLER_100_713
*1145 FILLER_100_725
*1146 FILLER_100_729
*1147 FILLER_100_77
*1148 FILLER_100_83
*1149 FILLER_100_85
*1150 FILLER_100_97
*1151 FILLER_101_109
*1152 FILLER_101_116
*1153 FILLER_101_120
*1154 FILLER_101_124
*1155 FILLER_101_136
*1156 FILLER_101_144
*1157 FILLER_101_151
*1158 FILLER_101_159
*1159 FILLER_101_16
*1160 FILLER_101_164
*1161 FILLER_101_169
*1162 FILLER_101_178
*1163 FILLER_101_186
*1164 FILLER_101_192
*1165 FILLER_101_197
*1166 FILLER_101_201
*1167 FILLER_101_205
*1168 FILLER_101_220
*1169 FILLER_101_225
*1170 FILLER_101_232
*1171 FILLER_101_244
*1172 FILLER_101_248
*1173 FILLER_101_253
*1174 FILLER_101_259
*1175 FILLER_101_271
*1176 FILLER_101_276
*1177 FILLER_101_281
*1178 FILLER_101_286
*1179 FILLER_101_29
*1180 FILLER_101_298
*1181 FILLER_101_3
*1182 FILLER_101_304
*1183 FILLER_101_309
*1184 FILLER_101_313
*1185 FILLER_101_325
*1186 FILLER_101_331
*1187 FILLER_101_335
*1188 FILLER_101_34
*1189 FILLER_101_340
*1190 FILLER_101_352
*1191 FILLER_101_358
*1192 FILLER_101_368
*1193 FILLER_101_380
*1194 FILLER_101_385
*1195 FILLER_101_391
*1196 FILLER_101_396
*1197 FILLER_101_408
*1198 FILLER_101_412
*1199 FILLER_101_424
*1200 FILLER_101_43
*1201 FILLER_101_439
*1202 FILLER_101_447
*1203 FILLER_101_452
*1204 FILLER_101_460
*1205 FILLER_101_466
*1206 FILLER_101_474
*1207 FILLER_101_480
*1208 FILLER_101_488
*1209 FILLER_101_493
*1210 FILLER_101_501
*1211 FILLER_101_508
*1212 FILLER_101_516
*1213 FILLER_101_520
*1214 FILLER_101_536
*1215 FILLER_101_547
*1216 FILLER_101_55
*1217 FILLER_101_556
*1218 FILLER_101_561
*1219 FILLER_101_569
*1220 FILLER_101_57
*1221 FILLER_101_574
*1222 FILLER_101_583
*1223 FILLER_101_587
*1224 FILLER_101_589
*1225 FILLER_101_597
*1226 FILLER_101_601
*1227 FILLER_101_61
*1228 FILLER_101_610
*1229 FILLER_101_617
*1230 FILLER_101_628
*1231 FILLER_101_637
*1232 FILLER_101_643
*1233 FILLER_101_645
*1234 FILLER_101_651
*1235 FILLER_101_655
*1236 FILLER_101_664
*1237 FILLER_101_673
*1238 FILLER_101_682
*1239 FILLER_101_691
*1240 FILLER_101_699
*1241 FILLER_101_7
*1242 FILLER_101_70
*1243 FILLER_101_701
*1244 FILLER_101_705
*1245 FILLER_101_709
*1246 FILLER_101_718
*1247 FILLER_101_726
*1248 FILLER_101_729
*1249 FILLER_101_82
*1250 FILLER_101_88
*1251 FILLER_101_97
*1252 FILLER_10_110
*1253 FILLER_10_118
*1254 FILLER_10_127
*1255 FILLER_10_136
*1256 FILLER_10_143
*1257 FILLER_10_15
*1258 FILLER_10_152
*1259 FILLER_10_158
*1260 FILLER_10_182
*1261 FILLER_10_191
*1262 FILLER_10_195
*1263 FILLER_10_213
*1264 FILLER_10_225
*1265 FILLER_10_231
*1266 FILLER_10_243
*1267 FILLER_10_251
*1268 FILLER_10_253
*1269 FILLER_10_265
*1270 FILLER_10_27
*1271 FILLER_10_274
*1272 FILLER_10_286
*1273 FILLER_10_29
*1274 FILLER_10_298
*1275 FILLER_10_3
*1276 FILLER_10_306
*1277 FILLER_10_309
*1278 FILLER_10_314
*1279 FILLER_10_326
*1280 FILLER_10_33
*1281 FILLER_10_338
*1282 FILLER_10_350
*1283 FILLER_10_362
*1284 FILLER_10_365
*1285 FILLER_10_377
*1286 FILLER_10_389
*1287 FILLER_10_40
*1288 FILLER_10_401
*1289 FILLER_10_413
*1290 FILLER_10_419
*1291 FILLER_10_421
*1292 FILLER_10_433
*1293 FILLER_10_445
*1294 FILLER_10_457
*1295 FILLER_10_46
*1296 FILLER_10_469
*1297 FILLER_10_475
*1298 FILLER_10_477
*1299 FILLER_10_489
*1300 FILLER_10_501
*1301 FILLER_10_513
*1302 FILLER_10_525
*1303 FILLER_10_531
*1304 FILLER_10_533
*1305 FILLER_10_545
*1306 FILLER_10_557
*1307 FILLER_10_569
*1308 FILLER_10_57
*1309 FILLER_10_581
*1310 FILLER_10_587
*1311 FILLER_10_589
*1312 FILLER_10_601
*1313 FILLER_10_613
*1314 FILLER_10_625
*1315 FILLER_10_63
*1316 FILLER_10_637
*1317 FILLER_10_643
*1318 FILLER_10_645
*1319 FILLER_10_657
*1320 FILLER_10_669
*1321 FILLER_10_681
*1322 FILLER_10_693
*1323 FILLER_10_699
*1324 FILLER_10_701
*1325 FILLER_10_713
*1326 FILLER_10_725
*1327 FILLER_10_80
*1328 FILLER_10_88
*1329 FILLER_10_98
*1330 FILLER_11_107
*1331 FILLER_11_111
*1332 FILLER_11_113
*1333 FILLER_11_118
*1334 FILLER_11_124
*1335 FILLER_11_128
*1336 FILLER_11_135
*1337 FILLER_11_144
*1338 FILLER_11_15
*1339 FILLER_11_150
*1340 FILLER_11_157
*1341 FILLER_11_164
*1342 FILLER_11_169
*1343 FILLER_11_181
*1344 FILLER_11_188
*1345 FILLER_11_204
*1346 FILLER_11_216
*1347 FILLER_11_225
*1348 FILLER_11_242
*1349 FILLER_11_250
*1350 FILLER_11_27
*1351 FILLER_11_272
*1352 FILLER_11_281
*1353 FILLER_11_285
*1354 FILLER_11_292
*1355 FILLER_11_3
*1356 FILLER_11_300
*1357 FILLER_11_311
*1358 FILLER_11_318
*1359 FILLER_11_330
*1360 FILLER_11_337
*1361 FILLER_11_349
*1362 FILLER_11_361
*1363 FILLER_11_373
*1364 FILLER_11_385
*1365 FILLER_11_39
*1366 FILLER_11_391
*1367 FILLER_11_393
*1368 FILLER_11_405
*1369 FILLER_11_417
*1370 FILLER_11_429
*1371 FILLER_11_441
*1372 FILLER_11_447
*1373 FILLER_11_449
*1374 FILLER_11_461
*1375 FILLER_11_473
*1376 FILLER_11_485
*1377 FILLER_11_49
*1378 FILLER_11_497
*1379 FILLER_11_503
*1380 FILLER_11_505
*1381 FILLER_11_517
*1382 FILLER_11_529
*1383 FILLER_11_541
*1384 FILLER_11_55
*1385 FILLER_11_553
*1386 FILLER_11_559
*1387 FILLER_11_561
*1388 FILLER_11_57
*1389 FILLER_11_573
*1390 FILLER_11_585
*1391 FILLER_11_597
*1392 FILLER_11_609
*1393 FILLER_11_61
*1394 FILLER_11_615
*1395 FILLER_11_617
*1396 FILLER_11_629
*1397 FILLER_11_641
*1398 FILLER_11_653
*1399 FILLER_11_665
*1400 FILLER_11_671
*1401 FILLER_11_673
*1402 FILLER_11_685
*1403 FILLER_11_697
*1404 FILLER_11_709
*1405 FILLER_11_72
*1406 FILLER_11_721
*1407 FILLER_11_727
*1408 FILLER_11_729
*1409 FILLER_11_81
*1410 FILLER_11_90
*1411 FILLER_11_98
*1412 FILLER_12_115
*1413 FILLER_12_121
*1414 FILLER_12_127
*1415 FILLER_12_134
*1416 FILLER_12_147
*1417 FILLER_12_15
*1418 FILLER_12_151
*1419 FILLER_12_158
*1420 FILLER_12_171
*1421 FILLER_12_191
*1422 FILLER_12_195
*1423 FILLER_12_200
*1424 FILLER_12_206
*1425 FILLER_12_230
*1426 FILLER_12_238
*1427 FILLER_12_245
*1428 FILLER_12_251
*1429 FILLER_12_253
*1430 FILLER_12_268
*1431 FILLER_12_27
*1432 FILLER_12_275
*1433 FILLER_12_285
*1434 FILLER_12_29
*1435 FILLER_12_297
*1436 FILLER_12_3
*1437 FILLER_12_301
*1438 FILLER_12_307
*1439 FILLER_12_309
*1440 FILLER_12_321
*1441 FILLER_12_333
*1442 FILLER_12_345
*1443 FILLER_12_357
*1444 FILLER_12_363
*1445 FILLER_12_365
*1446 FILLER_12_377
*1447 FILLER_12_38
*1448 FILLER_12_389
*1449 FILLER_12_401
*1450 FILLER_12_413
*1451 FILLER_12_419
*1452 FILLER_12_421
*1453 FILLER_12_433
*1454 FILLER_12_445
*1455 FILLER_12_457
*1456 FILLER_12_469
*1457 FILLER_12_475
*1458 FILLER_12_477
*1459 FILLER_12_489
*1460 FILLER_12_501
*1461 FILLER_12_513
*1462 FILLER_12_52
*1463 FILLER_12_525
*1464 FILLER_12_531
*1465 FILLER_12_533
*1466 FILLER_12_545
*1467 FILLER_12_557
*1468 FILLER_12_569
*1469 FILLER_12_581
*1470 FILLER_12_587
*1471 FILLER_12_589
*1472 FILLER_12_601
*1473 FILLER_12_613
*1474 FILLER_12_625
*1475 FILLER_12_637
*1476 FILLER_12_643
*1477 FILLER_12_645
*1478 FILLER_12_657
*1479 FILLER_12_66
*1480 FILLER_12_669
*1481 FILLER_12_681
*1482 FILLER_12_693
*1483 FILLER_12_699
*1484 FILLER_12_701
*1485 FILLER_12_713
*1486 FILLER_12_725
*1487 FILLER_12_74
*1488 FILLER_12_80
*1489 FILLER_12_85
*1490 FILLER_12_89
*1491 FILLER_12_95
*1492 FILLER_13_103
*1493 FILLER_13_111
*1494 FILLER_13_113
*1495 FILLER_13_130
*1496 FILLER_13_144
*1497 FILLER_13_15
*1498 FILLER_13_156
*1499 FILLER_13_163
*1500 FILLER_13_167
*1501 FILLER_13_169
*1502 FILLER_13_175
*1503 FILLER_13_184
*1504 FILLER_13_198
*1505 FILLER_13_218
*1506 FILLER_13_227
*1507 FILLER_13_239
*1508 FILLER_13_246
*1509 FILLER_13_27
*1510 FILLER_13_270
*1511 FILLER_13_278
*1512 FILLER_13_281
*1513 FILLER_13_291
*1514 FILLER_13_3
*1515 FILLER_13_304
*1516 FILLER_13_314
*1517 FILLER_13_326
*1518 FILLER_13_33
*1519 FILLER_13_334
*1520 FILLER_13_337
*1521 FILLER_13_349
*1522 FILLER_13_361
*1523 FILLER_13_373
*1524 FILLER_13_385
*1525 FILLER_13_391
*1526 FILLER_13_393
*1527 FILLER_13_40
*1528 FILLER_13_405
*1529 FILLER_13_417
*1530 FILLER_13_429
*1531 FILLER_13_441
*1532 FILLER_13_447
*1533 FILLER_13_449
*1534 FILLER_13_461
*1535 FILLER_13_473
*1536 FILLER_13_485
*1537 FILLER_13_497
*1538 FILLER_13_503
*1539 FILLER_13_505
*1540 FILLER_13_517
*1541 FILLER_13_52
*1542 FILLER_13_529
*1543 FILLER_13_541
*1544 FILLER_13_553
*1545 FILLER_13_559
*1546 FILLER_13_561
*1547 FILLER_13_573
*1548 FILLER_13_585
*1549 FILLER_13_597
*1550 FILLER_13_609
*1551 FILLER_13_615
*1552 FILLER_13_617
*1553 FILLER_13_629
*1554 FILLER_13_641
*1555 FILLER_13_65
*1556 FILLER_13_653
*1557 FILLER_13_665
*1558 FILLER_13_671
*1559 FILLER_13_673
*1560 FILLER_13_685
*1561 FILLER_13_697
*1562 FILLER_13_709
*1563 FILLER_13_721
*1564 FILLER_13_727
*1565 FILLER_13_729
*1566 FILLER_13_85
*1567 FILLER_13_91
*1568 FILLER_14_121
*1569 FILLER_14_133
*1570 FILLER_14_139
*1571 FILLER_14_141
*1572 FILLER_14_145
*1573 FILLER_14_15
*1574 FILLER_14_152
*1575 FILLER_14_162
*1576 FILLER_14_175
*1577 FILLER_14_187
*1578 FILLER_14_195
*1579 FILLER_14_207
*1580 FILLER_14_213
*1581 FILLER_14_234
*1582 FILLER_14_246
*1583 FILLER_14_253
*1584 FILLER_14_265
*1585 FILLER_14_27
*1586 FILLER_14_277
*1587 FILLER_14_282
*1588 FILLER_14_289
*1589 FILLER_14_29
*1590 FILLER_14_3
*1591 FILLER_14_301
*1592 FILLER_14_307
*1593 FILLER_14_316
*1594 FILLER_14_323
*1595 FILLER_14_335
*1596 FILLER_14_347
*1597 FILLER_14_359
*1598 FILLER_14_363
*1599 FILLER_14_365
*1600 FILLER_14_37
*1601 FILLER_14_377
*1602 FILLER_14_389
*1603 FILLER_14_401
*1604 FILLER_14_413
*1605 FILLER_14_419
*1606 FILLER_14_42
*1607 FILLER_14_421
*1608 FILLER_14_433
*1609 FILLER_14_445
*1610 FILLER_14_457
*1611 FILLER_14_46
*1612 FILLER_14_469
*1613 FILLER_14_475
*1614 FILLER_14_477
*1615 FILLER_14_489
*1616 FILLER_14_501
*1617 FILLER_14_513
*1618 FILLER_14_525
*1619 FILLER_14_53
*1620 FILLER_14_531
*1621 FILLER_14_533
*1622 FILLER_14_545
*1623 FILLER_14_557
*1624 FILLER_14_569
*1625 FILLER_14_581
*1626 FILLER_14_587
*1627 FILLER_14_589
*1628 FILLER_14_601
*1629 FILLER_14_613
*1630 FILLER_14_625
*1631 FILLER_14_637
*1632 FILLER_14_643
*1633 FILLER_14_645
*1634 FILLER_14_65
*1635 FILLER_14_657
*1636 FILLER_14_669
*1637 FILLER_14_681
*1638 FILLER_14_693
*1639 FILLER_14_699
*1640 FILLER_14_701
*1641 FILLER_14_713
*1642 FILLER_14_725
*1643 FILLER_14_77
*1644 FILLER_14_83
*1645 FILLER_14_85
*1646 FILLER_14_97
*1647 FILLER_15_108
*1648 FILLER_15_113
*1649 FILLER_15_121
*1650 FILLER_15_132
*1651 FILLER_15_144
*1652 FILLER_15_15
*1653 FILLER_15_154
*1654 FILLER_15_164
*1655 FILLER_15_169
*1656 FILLER_15_172
*1657 FILLER_15_176
*1658 FILLER_15_182
*1659 FILLER_15_206
*1660 FILLER_15_218
*1661 FILLER_15_225
*1662 FILLER_15_233
*1663 FILLER_15_250
*1664 FILLER_15_258
*1665 FILLER_15_263
*1666 FILLER_15_27
*1667 FILLER_15_270
*1668 FILLER_15_276
*1669 FILLER_15_287
*1670 FILLER_15_296
*1671 FILLER_15_3
*1672 FILLER_15_310
*1673 FILLER_15_322
*1674 FILLER_15_334
*1675 FILLER_15_337
*1676 FILLER_15_349
*1677 FILLER_15_361
*1678 FILLER_15_373
*1679 FILLER_15_385
*1680 FILLER_15_39
*1681 FILLER_15_391
*1682 FILLER_15_393
*1683 FILLER_15_405
*1684 FILLER_15_417
*1685 FILLER_15_429
*1686 FILLER_15_441
*1687 FILLER_15_447
*1688 FILLER_15_449
*1689 FILLER_15_45
*1690 FILLER_15_461