*SPEF "ieee 1481-1999"
*DESIGN "pixel_macro"
*DATE "11:11:11 Fri 11 11, 1111"
*VENDOR "OpenRCX"
*PROGRAM "Parallel Extraction"
*VERSION "1.0"
*DESIGN_FLOW "NAME_SCOPE LOCAL" "PIN_CAP NONE"
*DIVIDER /
*DELIMITER :
*BUS_DELIMITER []
*T_UNIT 1 NS
*C_UNIT 1 PF
*R_UNIT 1 OHM
*L_UNIT 1 HENRY

*NAME_MAP
*1 io_in[0]
*2 io_in[10]
*3 io_in[11]
*4 io_in[12]
*5 io_in[13]
*6 io_in[14]
*7 io_in[15]
*8 io_in[16]
*9 io_in[17]
*10 io_in[18]
*11 io_in[19]
*12 io_in[1]
*13 io_in[20]
*14 io_in[21]
*15 io_in[22]
*16 io_in[23]
*17 io_in[24]
*18 io_in[25]
*19 io_in[26]
*20 io_in[27]
*21 io_in[28]
*22 io_in[29]
*23 io_in[2]
*24 io_in[30]
*25 io_in[31]
*26 io_in[32]
*27 io_in[33]
*28 io_in[34]
*29 io_in[35]
*30 io_in[36]
*31 io_in[37]
*32 io_in[3]
*33 io_in[4]
*34 io_in[5]
*35 io_in[6]
*36 io_in[7]
*37 io_in[8]
*38 io_in[9]
*39 net248
*40 net258
*41 net259
*42 net260
*43 net261
*44 net262
*45 net263
*46 net264
*47 net265
*48 net266
*49 net267
*50 net249
*51 net268
*52 net269
*53 net270
*54 net271
*55 net272
*56 net273
*57 net274
*58 net275
*59 net276
*60 net277
*61 net250
*62 net278
*63 net279
*64 net280
*65 net281
*66 net282
*67 net283
*68 net284
*69 net285
*70 net251
*71 net252
*72 net253
*73 net254
*74 net255
*75 net256
*76 net257
*77 net210
*78 net220
*79 net221
*80 net222
*81 net223
*82 net224
*83 net225
*84 net226
*85 net227
*86 net228
*87 net229
*88 net211
*89 net230
*90 net231
*91 net232
*92 net233
*93 net234
*94 net235
*95 net236
*96 net237
*97 net238
*98 net239
*99 net212
*100 net240
*101 net241
*102 net242
*103 net243
*104 net244
*105 net245
*106 net246
*107 net247
*108 net213
*109 net214
*110 net215
*111 net216
*112 net217
*113 net218
*114 net219
*115 net207
*116 net208
*117 net209
*118 la_data_in[0]
*119 la_data_in[100]
*120 la_data_in[101]
*121 la_data_in[102]
*122 la_data_in[103]
*123 la_data_in[104]
*124 la_data_in[105]
*125 la_data_in[106]
*126 la_data_in[107]
*127 la_data_in[108]
*128 la_data_in[109]
*129 la_data_in[10]
*130 la_data_in[110]
*131 la_data_in[111]
*132 la_data_in[112]
*133 la_data_in[113]
*134 la_data_in[114]
*135 la_data_in[115]
*136 la_data_in[116]
*137 la_data_in[117]
*138 la_data_in[118]
*139 la_data_in[119]
*140 la_data_in[11]
*141 la_data_in[120]
*142 la_data_in[121]
*143 la_data_in[122]
*144 la_data_in[123]
*145 la_data_in[124]
*146 la_data_in[125]
*147 la_data_in[126]
*148 la_data_in[127]
*149 la_data_in[12]
*150 la_data_in[13]
*151 la_data_in[14]
*152 la_data_in[15]
*153 la_data_in[16]
*154 la_data_in[17]
*155 la_data_in[18]
*156 la_data_in[19]
*157 la_data_in[1]
*158 la_data_in[20]
*159 la_data_in[21]
*160 la_data_in[22]
*161 la_data_in[23]
*162 la_data_in[24]
*163 la_data_in[25]
*164 la_data_in[26]
*165 la_data_in[27]
*166 la_data_in[28]
*167 la_data_in[29]
*168 la_data_in[2]
*169 la_data_in[30]
*170 la_data_in[31]
*171 la_data_in[32]
*172 la_data_in[33]
*173 la_data_in[34]
*174 la_data_in[35]
*175 la_data_in[36]
*176 la_data_in[37]
*177 la_data_in[38]
*178 la_data_in[39]
*179 la_data_in[3]
*180 la_data_in[40]
*181 la_data_in[41]
*182 la_data_in[42]
*183 la_data_in[43]
*184 la_data_in[44]
*185 la_data_in[45]
*186 la_data_in[46]
*187 la_data_in[47]
*188 la_data_in[48]
*189 la_data_in[49]
*190 la_data_in[4]
*191 la_data_in[50]
*192 la_data_in[51]
*193 la_data_in[52]
*194 la_data_in[53]
*195 la_data_in[54]
*196 la_data_in[55]
*197 la_data_in[56]
*198 la_data_in[57]
*199 la_data_in[58]
*200 la_data_in[59]
*201 la_data_in[5]
*202 la_data_in[60]
*203 la_data_in[61]
*204 la_data_in[62]
*205 la_data_in[63]
*206 la_data_in[64]
*207 la_data_in[65]
*208 la_data_in[66]
*209 la_data_in[67]
*210 la_data_in[68]
*211 la_data_in[69]
*212 la_data_in[6]
*213 la_data_in[70]
*214 la_data_in[71]
*215 la_data_in[72]
*216 la_data_in[73]
*217 la_data_in[74]
*218 la_data_in[75]
*219 la_data_in[76]
*220 la_data_in[77]
*221 la_data_in[78]
*222 la_data_in[79]
*223 la_data_in[7]
*224 la_data_in[80]
*225 la_data_in[81]
*226 la_data_in[82]
*227 la_data_in[83]
*228 la_data_in[84]
*229 la_data_in[85]
*230 la_data_in[86]
*231 la_data_in[87]
*232 la_data_in[88]
*233 la_data_in[89]
*234 la_data_in[8]
*235 la_data_in[90]
*236 la_data_in[91]
*237 la_data_in[92]
*238 la_data_in[93]
*239 la_data_in[94]
*240 la_data_in[95]
*241 la_data_in[96]
*242 la_data_in[97]
*243 la_data_in[98]
*244 la_data_in[99]
*245 la_data_in[9]
*246 la_data_out[0]
*247 net179
*248 net180
*249 net181
*250 net182
*251 net183
*252 net184
*253 net185
*254 net186
*255 net187
*256 net188
*257 la_data_out[10]
*258 net189
*259 net190
*260 net191
*261 net192
*262 net193
*263 net194
*264 net195
*265 net196
*266 net197
*267 net198
*268 la_data_out[11]
*269 net199
*270 net200
*271 net201
*272 net202
*273 net203
*274 net204
*275 net205
*276 net206
*277 la_data_out[12]
*278 la_data_out[13]
*279 la_data_out[14]
*280 la_data_out[15]
*281 la_data_out[16]
*282 la_data_out[17]
*283 la_data_out[18]
*284 la_data_out[19]
*285 la_data_out[1]
*286 la_data_out[20]
*287 la_data_out[21]
*288 net101
*289 net102
*290 net103
*291 net104
*292 net105
*293 net106
*294 net107
*295 net108
*296 la_data_out[2]
*297 net109
*298 net110
*299 net111
*300 net112
*301 net113
*302 net114
*303 net115
*304 net116
*305 net117
*306 net118
*307 la_data_out[3]
*308 net119
*309 net120
*310 net121
*311 net122
*312 net123
*313 net124
*314 net125
*315 net126
*316 net127
*317 net128
*318 la_data_out[4]
*319 net129
*320 net130
*321 net131
*322 net132
*323 net133
*324 net134
*325 net135
*326 net136
*327 net137
*328 net138
*329 la_data_out[5]
*330 net139
*331 net140
*332 net141
*333 net142
*334 net143
*335 net144
*336 net145
*337 net146
*338 net147
*339 net148
*340 la_data_out[6]
*341 net149
*342 net150
*343 net151
*344 net152
*345 net153
*346 net154
*347 net155
*348 net156
*349 net157
*350 net158
*351 la_data_out[7]
*352 net159
*353 net160
*354 net161
*355 net162
*356 net163
*357 net164
*358 net165
*359 net166
*360 net167
*361 net168
*362 la_data_out[8]
*363 net169
*364 net170
*365 net171
*366 net172
*367 net173
*368 net174
*369 net175
*370 net176
*371 net177
*372 net178
*373 la_data_out[9]
*374 la_oenb[0]
*375 la_oenb[100]
*376 la_oenb[101]
*377 la_oenb[102]
*378 la_oenb[103]
*379 la_oenb[104]
*380 la_oenb[105]
*381 la_oenb[106]
*382 la_oenb[107]
*383 la_oenb[108]
*384 la_oenb[109]
*385 la_oenb[10]
*386 la_oenb[110]
*387 la_oenb[111]
*388 la_oenb[112]
*389 la_oenb[113]
*390 la_oenb[114]
*391 la_oenb[115]
*392 la_oenb[116]
*393 la_oenb[117]
*394 la_oenb[118]
*395 la_oenb[119]
*396 la_oenb[11]
*397 la_oenb[120]
*398 la_oenb[121]
*399 la_oenb[122]
*400 la_oenb[123]
*401 la_oenb[124]
*402 la_oenb[125]
*403 la_oenb[126]
*404 la_oenb[127]
*405 la_oenb[12]
*406 la_oenb[13]
*407 la_oenb[14]
*408 la_oenb[15]
*409 la_oenb[16]
*410 la_oenb[17]
*411 la_oenb[18]
*412 la_oenb[19]
*413 la_oenb[1]
*414 la_oenb[20]
*415 la_oenb[21]
*416 la_oenb[22]
*417 la_oenb[23]
*418 la_oenb[24]
*419 la_oenb[25]
*420 la_oenb[26]
*421 la_oenb[27]
*422 la_oenb[28]
*423 la_oenb[29]
*424 la_oenb[2]
*425 la_oenb[30]
*426 la_oenb[31]
*427 la_oenb[32]
*428 la_oenb[33]
*429 la_oenb[34]
*430 la_oenb[35]
*431 la_oenb[36]
*432 la_oenb[37]
*433 la_oenb[38]
*434 la_oenb[39]
*435 la_oenb[3]
*436 la_oenb[40]
*437 la_oenb[41]
*438 la_oenb[42]
*439 la_oenb[43]
*440 la_oenb[44]
*441 la_oenb[45]
*442 la_oenb[46]
*443 la_oenb[47]
*444 la_oenb[48]
*445 la_oenb[49]
*446 la_oenb[4]
*447 la_oenb[50]
*448 la_oenb[51]
*449 la_oenb[52]
*450 la_oenb[53]
*451 la_oenb[54]
*452 la_oenb[55]
*453 la_oenb[56]
*454 la_oenb[57]
*455 la_oenb[58]
*456 la_oenb[59]
*457 la_oenb[5]
*458 la_oenb[60]
*459 la_oenb[61]
*460 la_oenb[62]
*461 la_oenb[63]
*462 la_oenb[64]
*463 la_oenb[65]
*464 la_oenb[66]
*465 la_oenb[67]
*466 la_oenb[68]
*467 la_oenb[69]
*468 la_oenb[6]
*469 la_oenb[70]
*470 la_oenb[71]
*471 la_oenb[72]
*472 la_oenb[73]
*473 la_oenb[74]
*474 la_oenb[75]
*475 la_oenb[76]
*476 la_oenb[77]
*477 la_oenb[78]
*478 la_oenb[79]
*479 la_oenb[7]
*480 la_oenb[80]
*481 la_oenb[81]
*482 la_oenb[82]
*483 la_oenb[83]
*484 la_oenb[84]
*485 la_oenb[85]
*486 la_oenb[86]
*487 la_oenb[87]
*488 la_oenb[88]
*489 la_oenb[89]
*490 la_oenb[8]
*491 la_oenb[90]
*492 la_oenb[91]
*493 la_oenb[92]
*494 la_oenb[93]
*495 la_oenb[94]
*496 la_oenb[95]
*497 la_oenb[96]
*498 la_oenb[97]
*499 la_oenb[98]
*500 la_oenb[99]
*501 la_oenb[9]
*502 net286
*503 pxl_start_in_ext
*504 pxl_start_out
*507 wb_clk_i
*508 wb_rst_i
*509 net287
*510 wbs_adr_i[0]
*511 wbs_adr_i[10]
*512 wbs_adr_i[11]
*513 wbs_adr_i[12]
*514 wbs_adr_i[13]
*515 wbs_adr_i[14]
*516 wbs_adr_i[15]
*517 wbs_adr_i[16]
*518 wbs_adr_i[17]
*519 wbs_adr_i[18]
*520 wbs_adr_i[19]
*521 wbs_adr_i[1]
*522 wbs_adr_i[20]
*523 wbs_adr_i[21]
*524 wbs_adr_i[22]
*525 wbs_adr_i[23]
*526 wbs_adr_i[24]
*527 wbs_adr_i[25]
*528 wbs_adr_i[26]
*529 wbs_adr_i[27]
*530 wbs_adr_i[28]
*531 wbs_adr_i[29]
*532 wbs_adr_i[2]
*533 wbs_adr_i[30]
*534 wbs_adr_i[31]
*535 wbs_adr_i[3]
*536 wbs_adr_i[4]
*537 wbs_adr_i[5]
*538 wbs_adr_i[6]
*539 wbs_adr_i[7]
*540 wbs_adr_i[8]
*541 wbs_adr_i[9]
*542 wbs_cyc_i
*543 wbs_dat_i[0]
*544 wbs_dat_i[10]
*545 wbs_dat_i[11]
*546 wbs_dat_i[12]
*547 wbs_dat_i[13]
*548 wbs_dat_i[14]
*549 wbs_dat_i[15]
*550 wbs_dat_i[16]
*551 wbs_dat_i[17]
*552 wbs_dat_i[18]
*553 wbs_dat_i[19]
*554 wbs_dat_i[1]
*555 wbs_dat_i[20]
*556 wbs_dat_i[21]
*557 wbs_dat_i[22]
*558 wbs_dat_i[23]
*559 wbs_dat_i[24]
*560 wbs_dat_i[25]
*561 wbs_dat_i[26]
*562 wbs_dat_i[27]
*563 wbs_dat_i[28]
*564 wbs_dat_i[29]
*565 wbs_dat_i[2]
*566 wbs_dat_i[30]
*567 wbs_dat_i[31]
*568 wbs_dat_i[3]
*569 wbs_dat_i[4]
*570 wbs_dat_i[5]
*571 wbs_dat_i[6]
*572 wbs_dat_i[7]
*573 wbs_dat_i[8]
*574 wbs_dat_i[9]
*575 wbs_dat_o[0]
*576 wbs_dat_o[10]
*577 wbs_dat_o[11]
*578 wbs_dat_o[12]
*579 wbs_dat_o[13]
*580 wbs_dat_o[14]
*581 wbs_dat_o[15]
*582 wbs_dat_o[16]
*583 wbs_dat_o[17]
*584 wbs_dat_o[18]
*585 wbs_dat_o[19]
*586 wbs_dat_o[1]
*587 wbs_dat_o[20]
*588 wbs_dat_o[21]
*589 wbs_dat_o[22]
*590 wbs_dat_o[23]
*591 wbs_dat_o[24]
*592 net288
*593 net289
*594 net290
*595 net291
*596 net292
*597 wbs_dat_o[2]
*598 net293
*599 net294
*600 wbs_dat_o[3]
*601 wbs_dat_o[4]
*602 wbs_dat_o[5]
*603 wbs_dat_o[6]
*604 wbs_dat_o[7]
*605 wbs_dat_o[8]
*606 wbs_dat_o[9]
*607 wbs_sel_i[0]
*608 wbs_sel_i[1]
*609 wbs_sel_i[2]
*610 wbs_sel_i[3]
*611 wbs_stb_i
*612 wbs_we_i
*613 _000_
*614 _001_
*615 _002_
*616 _003_
*617 _004_
*618 _005_
*619 _006_
*620 _007_
*621 _008_
*622 _009_
*623 _010_
*624 _011_
*625 _012_
*626 _013_
*627 _014_
*628 _015_
*629 _016_
*630 _017_
*631 _018_
*632 _019_
*633 _020_
*634 _021_
*635 _022_
*636 _023_
*637 _024_
*638 _025_
*639 _026_
*640 _027_
*641 _028_
*642 _029_
*643 _030_
*644 _031_
*645 _032_
*646 _033_
*647 _034_
*648 _035_
*649 _036_
*650 _037_
*651 _038_
*652 _039_
*653 _040_
*654 _041_
*655 _042_
*656 _043_
*657 _044_
*658 _045_
*659 _046_
*660 _047_
*661 _048_
*662 _049_
*663 _050_
*664 _051_
*665 _052_
*666 _053_
*667 _054_
*668 _055_
*669 _056_
*670 _057_
*671 _058_
*672 _059_
*673 _060_
*674 _061_
*675 _062_
*676 _063_
*677 _064_
*678 _065_
*679 _066_
*680 _067_
*681 _068_
*682 _069_
*683 _070_
*684 _071_
*685 _072_
*686 _073_
*687 _074_
*688 _075_
*689 _076_
*690 _077_
*691 _078_
*692 _079_
*693 _080_
*694 _081_
*695 _082_
*696 _083_
*697 _084_
*698 _085_
*699 _086_
*700 _087_
*701 _088_
*702 _089_
*703 _090_
*704 _091_
*705 _092_
*706 _093_
*707 _094_
*708 _095_
*709 _096_
*710 _097_
*711 _098_
*712 _099_
*713 _100_
*714 _101_
*715 _102_
*716 _103_
*717 _104_
*718 _105_
*719 _106_
*720 _107_
*721 _108_
*722 _109_
*723 _110_
*724 _111_
*725 _112_
*726 _113_
*727 _114_
*728 _115_
*729 _116_
*730 _117_
*731 _118_
*732 _119_
*733 _120_
*734 _121_
*735 _122_
*736 _123_
*737 _124_
*738 _125_
*739 _126_
*740 _127_
*741 _128_
*742 _129_
*743 _130_
*744 _131_
*745 _132_
*746 _133_
*747 _134_
*748 _135_
*749 _136_
*750 _137_
*751 _138_
*752 _139_
*753 _140_
*754 _141_
*755 _142_
*756 _143_
*757 _144_
*758 _145_
*759 _146_
*760 _147_
*761 _148_
*762 _149_
*763 _150_
*764 _151_
*765 _152_
*766 _153_
*767 _154_
*768 _155_
*769 _156_
*770 _157_
*771 _158_
*772 _159_
*773 _160_
*774 _161_
*775 _162_
*776 _163_
*777 _164_
*778 _165_
*779 _166_
*780 _167_
*781 _168_
*782 _169_
*783 _170_
*784 _171_
*785 _172_
*786 _173_
*787 _174_
*788 _175_
*789 _176_
*790 _177_
*791 _178_
*792 _179_
*793 _180_
*794 _181_
*795 _182_
*796 _183_
*797 _184_
*798 _185_
*799 _186_
*800 _187_
*801 _188_
*802 _189_
*803 _190_
*804 _191_
*805 _192_
*806 _193_
*807 _194_
*808 _195_
*809 _196_
*810 _197_
*811 _198_
*812 _199_
*813 _200_
*814 _201_
*815 _202_
*816 _203_
*817 _204_
*818 _205_
*819 _206_
*820 _207_
*821 _208_
*822 _209_
*823 _210_
*824 _211_
*825 _212_
*826 _213_
*827 _214_
*828 _215_
*829 _216_
*830 _217_
*831 _218_
*832 _219_
*833 _220_
*834 _221_
*835 _222_
*836 _223_
*837 clknet_0_wb_clk_i
*838 clknet_2_0__leaf_wb_clk_i
*839 clknet_2_1__leaf_wb_clk_i
*840 clknet_2_2__leaf_wb_clk_i
*841 clknet_2_3__leaf_wb_clk_i
*842 control_reg_pxl_fsm\[0\]
*843 control_reg_pxl_fsm\[1\]
*844 control_reg_pxl_fsm\[24\]
*845 control_reg_pxl_fsm\[2\]
*846 control_reg_pxl_fsm\[3\]
*847 net1
*848 net10
*849 net100
*850 net11
*851 net12
*852 net13
*853 net14
*854 net15
*855 net16
*856 net17
*857 net18
*858 net19
*859 net2
*860 net20
*861 net21
*862 net22
*863 net23
*864 net24
*865 net25
*866 net26
*867 net27
*868 net28
*869 net29
*870 net3
*871 net30
*872 net31
*873 net32
*874 net33
*875 net34
*876 net35
*877 net36
*878 net37
*879 net38
*880 net39
*881 net4
*882 net40
*883 net41
*884 net42
*885 net43
*886 net44
*887 net45
*888 net46
*889 net47
*890 net48
*891 net49
*892 net5
*893 net50
*894 net51
*895 net52
*896 net53
*897 net54
*898 net55
*899 net56
*900 net57
*901 net58
*902 net59
*903 net6
*904 net60
*905 net61
*906 net62
*907 net63
*908 net64
*909 net65
*910 net66
*911 net67
*912 net68
*913 net69
*914 net7
*915 net70
*916 net71
*917 net72
*918 net73
*919 net74
*920 net75
*921 net76
*922 net77
*923 net78
*924 net79
*925 net8
*926 net80
*927 net81
*928 net82
*929 net83
*930 net84
*931 net85
*932 net86
*933 net87
*934 net88
*935 net89
*936 net9
*937 net90
*938 net91
*939 net92
*940 net93
*941 net94
*942 net95
*943 net96
*944 net97
*945 net98
*946 net99
*947 pixel_fsm0\.adj_max_clk\[0\]
*948 pixel_fsm0\.adj_max_clk\[1\]
*949 pixel_fsm0\.adj_max_clk\[2\]
*950 pixel_fsm0\.adj_max_clk\[3\]
*951 pixel_fsm0\.adj_max_clk\[4\]
*952 pixel_fsm0\.adj_max_clk\[5\]
*953 pixel_fsm0\.adj_max_clk\[6\]
*954 pixel_fsm0\.adj_max_clk\[7\]
*955 pixel_fsm0\.adj_max_clk\[8\]
*956 pixel_fsm0\.adj_max_clk\[9\]
*957 pixel_fsm0\.inst1\.next_state\[0\]
*958 pixel_fsm0\.inst1\.next_state\[1\]
*959 pixel_fsm0\.inst1\.next_state\[2\]
*960 pixel_fsm0\.inst1\.state\[0\]
*961 pixel_fsm0\.inst1\.state\[1\]
*962 pixel_fsm0\.inst1\.state\[2\]
*963 pixel_fsm0\.inst2\.loc_max_clk\[0\]
*964 pixel_fsm0\.inst2\.loc_max_clk\[1\]
*965 pixel_fsm0\.inst2\.loc_max_clk\[2\]
*966 pixel_fsm0\.inst2\.loc_max_clk\[3\]
*967 pixel_fsm0\.inst2\.loc_max_clk\[4\]
*968 pixel_fsm0\.inst2\.loc_max_clk\[5\]
*969 pixel_fsm0\.inst2\.loc_max_clk\[6\]
*970 pixel_fsm0\.inst2\.loc_max_clk\[7\]
*971 pixel_fsm0\.inst2\.loc_max_clk\[8\]
*972 pixel_fsm0\.inst2\.loc_max_clk\[9\]
*973 pixel_fsm0\.inst4\.pixel_count_max
*974 ANTENNA__224__B
*975 ANTENNA__228__A
*976 ANTENNA__231__B1
*977 ANTENNA__252__C
*978 ANTENNA__288__A
*979 ANTENNA__351__A
*980 ANTENNA__367__D
*981 ANTENNA__371__A
*982 ANTENNA__388__A
*983 ANTENNA__403__A
*984 ANTENNA__418__A
*985 ANTENNA__422__A1
*986 ANTENNA__426__A1
*987 ANTENNA_clkbuf_0_wb_clk_i_A
*988 ANTENNA_input10_A
*989 ANTENNA_input11_A
*990 ANTENNA_input12_A
*991 ANTENNA_input13_A
*992 ANTENNA_input14_A
*993 ANTENNA_input15_A
*994 ANTENNA_input16_A
*995 ANTENNA_input17_A
*996 ANTENNA_input18_A
*997 ANTENNA_input19_A
*998 ANTENNA_input1_A
*999 ANTENNA_input20_A
*1000 ANTENNA_input21_A
*1001 ANTENNA_input22_A
*1002 ANTENNA_input23_A
*1003 ANTENNA_input24_A
*1004 ANTENNA_input25_A
*1005 ANTENNA_input26_A
*1006 ANTENNA_input27_A
*1007 ANTENNA_input28_A
*1008 ANTENNA_input29_A
*1009 ANTENNA_input2_A
*1010 ANTENNA_input30_A
*1011 ANTENNA_input31_A
*1012 ANTENNA_input32_A
*1013 ANTENNA_input33_A
*1014 ANTENNA_input34_A
*1015 ANTENNA_input35_A
*1016 ANTENNA_input36_A
*1017 ANTENNA_input37_A
*1018 ANTENNA_input38_A
*1019 ANTENNA_input39_A
*1020 ANTENNA_input3_A
*1021 ANTENNA_input40_A
*1022 ANTENNA_input41_A
*1023 ANTENNA_input42_A
*1024 ANTENNA_input43_A
*1025 ANTENNA_input44_A
*1026 ANTENNA_input45_A
*1027 ANTENNA_input46_A
*1028 ANTENNA_input4_A
*1029 ANTENNA_input5_A
*1030 ANTENNA_input6_A
*1031 ANTENNA_input7_A
*1032 ANTENNA_input8_A
*1033 ANTENNA_input9_A
*1034 ANTENNA_output58_A
*1035 FILLER_0_10
*1036 FILLER_0_108
*1037 FILLER_0_113
*1038 FILLER_0_120
*1039 FILLER_0_128
*1040 FILLER_0_136
*1041 FILLER_0_141
*1042 FILLER_0_147
*1043 FILLER_0_151
*1044 FILLER_0_156
*1045 FILLER_0_164
*1046 FILLER_0_17
*1047 FILLER_0_177
*1048 FILLER_0_184
*1049 FILLER_0_192
*1050 FILLER_0_197
*1051 FILLER_0_204
*1052 FILLER_0_212
*1053 FILLER_0_220
*1054 FILLER_0_225
*1055 FILLER_0_232
*1056 FILLER_0_24
*1057 FILLER_0_240
*1058 FILLER_0_248
*1059 FILLER_0_253
*1060 FILLER_0_260
*1061 FILLER_0_268
*1062 FILLER_0_276
*1063 FILLER_0_281
*1064 FILLER_0_289
*1065 FILLER_0_297
*1066 FILLER_0_3
*1067 FILLER_0_304
*1068 FILLER_0_311
*1069 FILLER_0_318
*1070 FILLER_0_32
*1071 FILLER_0_325
*1072 FILLER_0_332
*1073 FILLER_0_339
*1074 FILLER_0_346
*1075 FILLER_0_353
*1076 FILLER_0_360
*1077 FILLER_0_365
*1078 FILLER_0_369
*1079 FILLER_0_376
*1080 FILLER_0_383
*1081 FILLER_0_391
*1082 FILLER_0_396
*1083 FILLER_0_403
*1084 FILLER_0_410
*1085 FILLER_0_416
*1086 FILLER_0_424
*1087 FILLER_0_431
*1088 FILLER_0_438
*1089 FILLER_0_44
*1090 FILLER_0_446
*1091 FILLER_0_452
*1092 FILLER_0_459
*1093 FILLER_0_466
*1094 FILLER_0_474
*1095 FILLER_0_480
*1096 FILLER_0_487
*1097 FILLER_0_494
*1098 FILLER_0_502
*1099 FILLER_0_508
*1100 FILLER_0_515
*1101 FILLER_0_52
*1102 FILLER_0_522
*1103 FILLER_0_530
*1104 FILLER_0_536
*1105 FILLER_0_543
*1106 FILLER_0_550
*1107 FILLER_0_558
*1108 FILLER_0_564
*1109 FILLER_0_57
*1110 FILLER_0_571
*1111 FILLER_0_578
*1112 FILLER_0_586
*1113 FILLER_0_592
*1114 FILLER_0_599
*1115 FILLER_0_606
*1116 FILLER_0_614
*1117 FILLER_0_620
*1118 FILLER_0_627
*1119 FILLER_0_634
*1120 FILLER_0_64
*1121 FILLER_0_642
*1122 FILLER_0_645
*1123 FILLER_0_657
*1124 FILLER_0_669
*1125 FILLER_0_673
*1126 FILLER_0_685
*1127 FILLER_0_697
*1128 FILLER_0_701
*1129 FILLER_0_713
*1130 FILLER_0_725
*1131 FILLER_0_729
*1132 FILLER_0_73
*1133 FILLER_0_80
*1134 FILLER_0_85
*1135 FILLER_0_96
*1136 FILLER_100_109
*1137 FILLER_100_121
*1138 FILLER_100_133
*1139 FILLER_100_139
*1140 FILLER_100_141
*1141 FILLER_100_15
*1142 FILLER_100_153
*1143 FILLER_100_165
*1144 FILLER_100_177
*1145 FILLER_100_189
*1146 FILLER_100_195
*1147 FILLER_100_197
*1148 FILLER_100_209
*1149 FILLER_100_221
*1150 FILLER_100_228
*1151 FILLER_100_240
*1152 FILLER_100_253
*1153 FILLER_100_265
*1154 FILLER_100_27
*1155 FILLER_100_277
*1156 FILLER_100_282
*1157 FILLER_100_29
*1158 FILLER_100_294
*1159 FILLER_100_3
*1160 FILLER_100_306
*1161 FILLER_100_309
*1162 FILLER_100_321
*1163 FILLER_100_333
*1164 FILLER_100_345
*1165 FILLER_100_357
*1166 FILLER_100_363
*1167 FILLER_100_365
*1168 FILLER_100_377
*1169 FILLER_100_389
*1170 FILLER_100_401
*1171 FILLER_100_409
*1172 FILLER_100_41
*1173 FILLER_100_414
*1174 FILLER_100_421
*1175 FILLER_100_433
*1176 FILLER_100_445
*1177 FILLER_100_457
*1178 FILLER_100_469
*1179 FILLER_100_475
*1180 FILLER_100_477
*1181 FILLER_100_489
*1182 FILLER_100_501
*1183 FILLER_100_513
*1184 FILLER_100_525
*1185 FILLER_100_53
*1186 FILLER_100_531
*1187 FILLER_100_533
*1188 FILLER_100_545
*1189 FILLER_100_557
*1190 FILLER_100_569
*1191 FILLER_100_581
*1192 FILLER_100_587
*1193 FILLER_100_589
*1194 FILLER_100_601
*1195 FILLER_100_613
*1196 FILLER_100_625
*1197 FILLER_100_637
*1198 FILLER_100_643
*1199 FILLER_100_645
*1200 FILLER_100_65
*1201 FILLER_100_657
*1202 FILLER_100_666
*1203 FILLER_100_678
*1204 FILLER_100_690
*1205 FILLER_100_698
*1206 FILLER_100_701
*1207 FILLER_100_713
*1208 FILLER_100_725
*1209 FILLER_100_77
*1210 FILLER_100_83
*1211 FILLER_100_85
*1212 FILLER_100_97
*1213 FILLER_101_101
*1214 FILLER_101_108
*1215 FILLER_101_113
*1216 FILLER_101_119
*1217 FILLER_101_126
*1218 FILLER_101_132
*1219 FILLER_101_136
*1220 FILLER_101_144
*1221 FILLER_101_15
*1222 FILLER_101_155
*1223 FILLER_101_162
*1224 FILLER_101_169
*1225 FILLER_101_173
*1226 FILLER_101_180
*1227 FILLER_101_188
*1228 FILLER_101_192
*1229 FILLER_101_200
*1230 FILLER_101_209
*1231 FILLER_101_216
*1232 FILLER_101_225
*1233 FILLER_101_234
*1234 FILLER_101_24
*1235 FILLER_101_242
*1236 FILLER_101_246
*1237 FILLER_101_256
*1238 FILLER_101_263
*1239 FILLER_101_270
*1240 FILLER_101_278
*1241 FILLER_101_281
*1242 FILLER_101_288
*1243 FILLER_101_29
*1244 FILLER_101_297
*1245 FILLER_101_3
*1246 FILLER_101_304
*1247 FILLER_101_309
*1248 FILLER_101_313
*1249 FILLER_101_317
*1250 FILLER_101_324
*1251 FILLER_101_328
*1252 FILLER_101_332
*1253 FILLER_101_337
*1254 FILLER_101_342
*1255 FILLER_101_353
*1256 FILLER_101_36
*1257 FILLER_101_360
*1258 FILLER_101_365
*1259 FILLER_101_371
*1260 FILLER_101_378
*1261 FILLER_101_390
*1262 FILLER_101_396
*1263 FILLER_101_403
*1264 FILLER_101_410
*1265 FILLER_101_418
*1266 FILLER_101_421
*1267 FILLER_101_426
*1268 FILLER_101_433
*1269 FILLER_101_444
*1270 FILLER_101_45
*1271 FILLER_101_452
*1272 FILLER_101_458
*1273 FILLER_101_462
*1274 FILLER_101_469
*1275 FILLER_101_475
*1276 FILLER_101_480
*1277 FILLER_101_487
*1278 FILLER_101_498
*1279 FILLER_101_508
*1280 FILLER_101_512
*1281 FILLER_101_516
*1282 FILLER_101_52
*1283 FILLER_101_523
*1284 FILLER_101_531
*1285 FILLER_101_536
*1286 FILLER_101_543
*1287 FILLER_101_552
*1288 FILLER_101_564
*1289 FILLER_101_57
*1290 FILLER_101_571
*1291 FILLER_101_578
*1292 FILLER_101_586
*1293 FILLER_101_592
*1294 FILLER_101_599
*1295 FILLER_101_606
*1296 FILLER_101_61
*1297 FILLER_101_614
*1298 FILLER_101_620
*1299 FILLER_101_627
*1300 FILLER_101_634
*1301 FILLER_101_642
*1302 FILLER_101_648
*1303 FILLER_101_65
*1304 FILLER_101_655
*1305 FILLER_101_662
*1306 FILLER_101_670
*1307 FILLER_101_673
*1308 FILLER_101_678
*1309 FILLER_101_685
*1310 FILLER_101_696
*1311 FILLER_101_704
*1312 FILLER_101_716
*1313 FILLER_101_72
*1314 FILLER_101_720
*1315 FILLER_101_729
*1316 FILLER_101_76
*1317 FILLER_101_80
*1318 FILLER_101_85
*1319 FILLER_101_90
*1320 FILLER_10_109
*1321 FILLER_10_129
*1322 FILLER_10_136
*1323 FILLER_10_149
*1324 FILLER_10_157
*1325 FILLER_10_178
*1326 FILLER_10_184
*1327 FILLER_10_192
*1328 FILLER_10_197
*1329 FILLER_10_207
*1330 FILLER_10_227
*1331 FILLER_10_233
*1332 FILLER_10_24
*1333 FILLER_10_245
*1334 FILLER_10_251
*1335 FILLER_10_262
*1336 FILLER_10_272
*1337 FILLER_10_284
*1338 FILLER_10_29
*1339 FILLER_10_298
*1340 FILLER_10_3
*1341 FILLER_10_306
*1342 FILLER_10_309
*1343 FILLER_10_315
*1344 FILLER_10_340
*1345 FILLER_10_348
*1346 FILLER_10_352
*1347 FILLER_10_371
*1348 FILLER_10_383
*1349 FILLER_10_395
*1350 FILLER_10_40
*1351 FILLER_10_407
*1352 FILLER_10_419
*1353 FILLER_10_421
*1354 FILLER_10_433
*1355 FILLER_10_44
*1356 FILLER_10_445
*1357 FILLER_10_457
*1358 FILLER_10_469
*1359 FILLER_10_47
*1360 FILLER_10_475
*1361 FILLER_10_477
*1362 FILLER_10_489
*1363 FILLER_10_501
*1364 FILLER_10_513
*1365 FILLER_10_525
*1366 FILLER_10_531
*1367 FILLER_10_533
*1368 FILLER_10_54
*1369 FILLER_10_545
*1370 FILLER_10_557
*1371 FILLER_10_569
*1372 FILLER_10_581
*1373 FILLER_10_587
*1374 FILLER_10_589
*1375 FILLER_10_601
*1376 FILLER_10_61
*1377 FILLER_10_613
*1378 FILLER_10_625
*1379 FILLER_10_637
*1380 FILLER_10_643
*1381 FILLER_10_645
*1382 FILLER_10_657
*1383 FILLER_10_669
*1384 FILLER_10_681
*1385 FILLER_10_693
*1386 FILLER_10_699
*1387 FILLER_10_7
*1388 FILLER_10_70
*1389 FILLER_10_701
*1390 FILLER_10_713
*1391 FILLER_10_725
*1392 FILLER_10_76
*1393 FILLER_10_80
*1394 FILLER_10_95
*1395 FILLER_11_100
*1396 FILLER_11_104
*1397 FILLER_11_108
*1398 FILLER_11_116
*1399 FILLER_11_140
*1400 FILLER_11_149
*1401 FILLER_11_15
*1402 FILLER_11_156
*1403 FILLER_11_160
*1404 FILLER_11_164
*1405 FILLER_11_179
*1406 FILLER_11_187
*1407 FILLER_11_191
*1408 FILLER_11_201
*1409 FILLER_11_208
*1410 FILLER_11_220
*1411 FILLER_11_225
*1412 FILLER_11_243
*1413 FILLER_11_255
*1414 FILLER_11_267
*1415 FILLER_11_27
*1416 FILLER_11_279
*1417 FILLER_11_284
*1418 FILLER_11_296
*1419 FILLER_11_3
*1420 FILLER_11_310
*1421 FILLER_11_316
*1422 FILLER_11_323
*1423 FILLER_11_330
*1424 FILLER_11_337
*1425 FILLER_11_355
*1426 FILLER_11_367
*1427 FILLER_11_379
*1428 FILLER_11_391
*1429 FILLER_11_393
*1430 FILLER_11_40
*1431 FILLER_11_405
*1432 FILLER_11_417
*1433 FILLER_11_429
*1434 FILLER_11_441
*1435 FILLER_11_447
*1436 FILLER_11_449
*1437 FILLER_11_461
*1438 FILLER_11_473
*1439 FILLER_11_485
*1440 FILLER_11_49
*1441 FILLER_11_497
*1442 FILLER_11_503
*1443 FILLER_11_505
*1444 FILLER_11_517
*1445 FILLER_11_529
*1446 FILLER_11_541
*1447 FILLER_11_55
*1448 FILLER_11_553
*1449 FILLER_11_559
*1450 FILLER_11_561
*1451 FILLER_11_573
*1452 FILLER_11_585
*1453 FILLER_11_59
*1454 FILLER_11_597
*1455 FILLER_11_609
*1456 FILLER_11_615
*1457 FILLER_11_617
*1458 FILLER_11_629
*1459 FILLER_11_641
*1460 FILLER_11_653
*1461 FILLER_11_665
*1462 FILLER_11_671
*1463 FILLER_11_673
*1464 FILLER_11_68
*1465 FILLER_11_685
*1466 FILLER_11_697
*1467 FILLER_11_709
*1468 FILLER_11_721
*1469 FILLER_11_727
*1470 FILLER_11_729
*1471 FILLER_11_80
*1472 FILLER_12_105
*1473 FILLER_12_114
*1474 FILLER_12_123
*1475 FILLER_12_132
*1476 FILLER_12_141
*1477 FILLER_12_15
*1478 FILLER_12_151
*1479 FILLER_12_158
*1480 FILLER_12_162
*1481 FILLER_12_166
*1482 FILLER_12_173
*1483 FILLER_12_184
*1484 FILLER_12_191
*1485 FILLER_12_195
*1486 FILLER_12_197
*1487 FILLER_12_203
*1488 FILLER_12_212
*1489 FILLER_12_218
*1490 FILLER_12_224
*1491 FILLER_12_236
*1492 FILLER_12_248
*1493 FILLER_12_265
*1494 FILLER_12_27
*1495 FILLER_12_272
*1496 FILLER_12_276
*1497 FILLER_12_282
*1498 FILLER_12_289
*1499 FILLER_12_29
*1500 FILLER_12_3
*1501 FILLER_12_300
*1502 FILLER_12_309
*1503 FILLER_12_321
*1504 FILLER_12_33
*1505 FILLER_12_333
*1506 FILLER_12_345
*1507 FILLER_12_354
*1508 FILLER_12_362
*1509 FILLER_12_365
*1510 FILLER_12_377
*1511 FILLER_12_389
*1512 FILLER_12_39
*1513 FILLER_12_401
*1514 FILLER_12_413
*1515 FILLER_12_419
*1516 FILLER_12_421
*1517 FILLER_12_43
*1518 FILLER_12_433
*1519 FILLER_12_445
*1520 FILLER_12_457
*1521 FILLER_12_469
*1522 FILLER_12_475
*1523 FILLER_12_477
*1524 FILLER_12_489
*1525 FILLER_12_501
*1526 FILLER_12_51
*1527 FILLER_12_513
*1528 FILLER_12_525
*1529 FILLER_12_531
*1530 FILLER_12_533
*1531 FILLER_12_545
*1532 FILLER_12_557
*1533 FILLER_12_569
*1534 FILLER_12_581
*1535 FILLER_12_587
*1536 FILLER_12_589
*1537 FILLER_12_601
*1538 FILLER_12_61
*1539 FILLER_12_613
*1540 FILLER_12_625
*1541 FILLER_12_637
*1542 FILLER_12_643
*1543 FILLER_12_645
*1544 FILLER_12_657
*1545 FILLER_12_669
*1546 FILLER_12_681
*1547 FILLER_12_693
*1548 FILLER_12_699
*1549 FILLER_12_701
*1550 FILLER_12_713
*1551 FILLER_12_725
*1552 FILLER_12_75
*1553 FILLER_12_83
*1554 FILLER_12_85
*1555 FILLER_12_89
*1556 FILLER_12_96
*1557 FILLER_13_105
*1558 FILLER_13_111
*1559 FILLER_13_123
*1560 FILLER_13_134
*1561 FILLER_13_142
*1562 FILLER_13_153
*1563 FILLER_13_161
*1564 FILLER_13_164
*1565 FILLER_13_169
*1566 FILLER_13_181
*1567 FILLER_13_188
*1568 FILLER_13_192
*1569 FILLER_13_198
*1570 FILLER_13_206
*1571 FILLER_13_212
*1572 FILLER_13_218
*1573 FILLER_13_225
*1574 FILLER_13_243
*1575 FILLER_13_255
*1576 FILLER_13_259
*1577 FILLER_13_269
*1578 FILLER_13_276
*1579 FILLER_13_281
*1580 FILLER_13_287
*1581 FILLER_13_295
*1582 FILLER_13_3
*1583 FILLER_13_308
*1584 FILLER_13_31
*1585 FILLER_13_332
*1586 FILLER_13_337
*1587 FILLER_13_343
*1588 FILLER_13_347
*1589 FILLER_13_357
*1590 FILLER_13_364
*1591 FILLER_13_376
*1592 FILLER_13_388
*1593 FILLER_13_393
*1594 FILLER_13_405
*1595 FILLER_13_417
*1596 FILLER_13_429
*1597 FILLER_13_441
*1598 FILLER_13_447
*1599 FILLER_13_449
*1600 FILLER_13_461
*1601 FILLER_13_473
*1602 FILLER_13_485
*1603 FILLER_13_497
*1604 FILLER_13_503
*1605 FILLER_13_505
*1606 FILLER_13_51
*1607 FILLER_13_517
*1608 FILLER_13_529
*1609 FILLER_13_541
*1610 FILLER_13_55
*1611 FILLER_13_553
*1612 FILLER_13_559
*1613 FILLER_13_561
*1614 FILLER_13_57
*1615 FILLER_13_573
*1616 FILLER_13_585
*1617 FILLER_13_597
*1618 FILLER_13_609
*1619 FILLER_13_615
*1620 FILLER_13_617
*1621 FILLER_13_629
*1622 FILLER_13_63
*1623 FILLER_13_641
*1624 FILLER_13_653
*1625 FILLER_13_665
*1626 FILLER_13_671
*1627 FILLER_13_673
*1628 FILLER_13_685
*1629 FILLER_13_697
*1630 FILLER_13_709
*1631 FILLER_13_721
*1632 FILLER_13_727
*1633 FILLER_13_729
*1634 FILLER_13_74
*1635 FILLER_13_80
*1636 FILLER_13_86
*1637 FILLER_13_89
*1638 FILLER_13_95
*1639 FILLER_14_101
*1640 FILLER_14_107
*1641 FILLER_14_115
*1642 FILLER_14_131
*1643 FILLER_14_139
*1644 FILLER_14_149
*1645 FILLER_14_15
*1646 FILLER_14_157
*1647 FILLER_14_160
*1648 FILLER_14_180
*1649 FILLER_14_189
*1650 FILLER_14_195
*1651 FILLER_14_203
*1652 FILLER_14_209
*1653 FILLER_14_221
*1654 FILLER_14_233
*1655 FILLER_14_245
*1656 FILLER_14_251
*1657 FILLER_14_265
*1658 FILLER_14_27
*1659 FILLER_14_277
*1660 FILLER_14_283
*1661 FILLER_14_29
*1662 FILLER_14_3
*1663 FILLER_14_304
*1664 FILLER_14_309
*1665 FILLER_14_321
*1666 FILLER_14_333
*1667 FILLER_14_345
*1668 FILLER_14_357
*1669 FILLER_14_363
*1670 FILLER_14_365
*1671 FILLER_14_377
*1672 FILLER_14_389
*1673 FILLER_14_401
*1674 FILLER_14_41
*1675 FILLER_14_413
*1676 FILLER_14_419
*1677 FILLER_14_421
*1678 FILLER_14_433
*1679 FILLER_14_445
*1680 FILLER_14_457
*1681 FILLER_14_469
*1682 FILLER_14_475
*1683 FILLER_14_477
*1684 FILLER_14_489
*1685 FILLER_14_50
*1686 FILLER_14_501
*1687 FILLER_14_513
*1688 FILLER_14_525
*1689 FILLER_14_531
*1690 FILLER_14_533
*1691 FILLER_14_545
*1692 FILLER_14_557
*1693 FILLER_14_569
*1694 FILLER_14_581
*1695 FILLER_14_587
*1696 FILLER_14_589
*1697 FILLER_14_601
*1698 FILLER_14_61
*1699 FILLER_14_613
*1700 FILLER_14_625
*1701 FILLER_14_637
*1702 FILLER_14_643
*1703 FILLER_14_645
*1704 FILLER_14_657
*1705 FILLER_14_669
*1706 FILLER_14_681
*1707 FILLER_14_693
*1708 FILLER_14_699
*1709 FILLER_14_701
*1710 FILLER_14_713
*1711 FILLER_14_725
*1712 FILLER_14_75
*1713 FILLER_14_83