*SPEF "ieee 1481-1999"
*DESIGN "pixel_macro"
*DATE "11:11:11 Fri 11 11, 1111"
*VENDOR "OpenRCX"
*PROGRAM "Parallel Extraction"
*VERSION "1.0"
*DESIGN_FLOW "NAME_SCOPE LOCAL" "PIN_CAP NONE"
*DIVIDER /
*DELIMITER :
*BUS_DELIMITER []
*T_UNIT 1 NS
*C_UNIT 1 PF
*R_UNIT 1 OHM
*L_UNIT 1 HENRY

*NAME_MAP
*1 io_in[0]
*2 io_in[10]
*3 io_in[11]
*4 io_in[12]
*5 io_in[13]
*6 io_in[14]
*7 io_in[15]
*8 io_in[16]
*9 io_in[17]
*10 io_in[18]
*11 io_in[19]
*12 io_in[1]
*13 io_in[20]
*14 io_in[21]
*15 io_in[22]
*16 io_in[23]
*17 io_in[24]
*18 io_in[25]
*19 io_in[26]
*20 io_in[27]
*21 io_in[28]
*22 io_in[29]
*23 io_in[2]
*24 io_in[30]
*25 io_in[31]
*26 io_in[32]
*27 io_in[33]
*28 io_in[34]
*29 io_in[35]
*30 io_in[36]
*31 io_in[37]
*32 io_in[3]
*33 io_in[4]
*34 io_in[5]
*35 io_in[6]
*36 io_in[7]
*37 io_in[8]
*38 io_in[9]
*39 net233
*40 net243
*41 net244
*42 net245
*43 net246
*44 net247
*45 net248
*46 net249
*47 net250
*48 net251
*49 net252
*50 net234
*51 net253
*52 net254
*53 net255
*54 net256
*55 net257
*56 net258
*57 net259
*58 net260
*59 net261
*60 net262
*61 net235
*62 net263
*63 net264
*64 net265
*65 net266
*66 net267
*67 net268
*68 net269
*69 net270
*70 net236
*71 net237
*72 net238
*73 net239
*74 net240
*75 net241
*76 net242
*77 net195
*78 net205
*79 net206
*80 net207
*81 net208
*82 net209
*83 net210
*84 net211
*85 net212
*86 net213
*87 net214
*88 net196
*89 net215
*90 net216
*91 net217
*92 net218
*93 net219
*94 net220
*95 net221
*96 net222
*97 net223
*98 net224
*99 net197
*100 net225
*101 net226
*102 net227
*103 net228
*104 net229
*105 net230
*106 net231
*107 net232
*108 net198
*109 net199
*110 net200
*111 net201
*112 net202
*113 net203
*114 net204
*115 net192
*116 net193
*117 net194
*118 la_data_in[0]
*119 la_data_in[100]
*120 la_data_in[101]
*121 la_data_in[102]
*122 la_data_in[103]
*123 la_data_in[104]
*124 la_data_in[105]
*125 la_data_in[106]
*126 la_data_in[107]
*127 la_data_in[108]
*128 la_data_in[109]
*129 la_data_in[10]
*130 la_data_in[110]
*131 la_data_in[111]
*132 la_data_in[112]
*133 la_data_in[113]
*134 la_data_in[114]
*135 la_data_in[115]
*136 la_data_in[116]
*137 la_data_in[117]
*138 la_data_in[118]
*139 la_data_in[119]
*140 la_data_in[11]
*141 la_data_in[120]
*142 la_data_in[121]
*143 la_data_in[122]
*144 la_data_in[123]
*145 la_data_in[124]
*146 la_data_in[125]
*147 la_data_in[126]
*148 la_data_in[127]
*149 la_data_in[12]
*150 la_data_in[13]
*151 la_data_in[14]
*152 la_data_in[15]
*153 la_data_in[16]
*154 la_data_in[17]
*155 la_data_in[18]
*156 la_data_in[19]
*157 la_data_in[1]
*158 la_data_in[20]
*159 la_data_in[21]
*160 la_data_in[22]
*161 la_data_in[23]
*162 la_data_in[24]
*163 la_data_in[25]
*164 la_data_in[26]
*165 la_data_in[27]
*166 la_data_in[28]
*167 la_data_in[29]
*168 la_data_in[2]
*169 la_data_in[30]
*170 la_data_in[31]
*171 la_data_in[32]
*172 la_data_in[33]
*173 la_data_in[34]
*174 la_data_in[35]
*175 la_data_in[36]
*176 la_data_in[37]
*177 la_data_in[38]
*178 la_data_in[39]
*179 la_data_in[3]
*180 la_data_in[40]
*181 la_data_in[41]
*182 la_data_in[42]
*183 la_data_in[43]
*184 la_data_in[44]
*185 la_data_in[45]
*186 la_data_in[46]
*187 la_data_in[47]
*188 la_data_in[48]
*189 la_data_in[49]
*190 la_data_in[4]
*191 la_data_in[50]
*192 la_data_in[51]
*193 la_data_in[52]
*194 la_data_in[53]
*195 la_data_in[54]
*196 la_data_in[55]
*197 la_data_in[56]
*198 la_data_in[57]
*199 la_data_in[58]
*200 la_data_in[59]
*201 la_data_in[5]
*202 la_data_in[60]
*203 la_data_in[61]
*204 la_data_in[62]
*205 la_data_in[63]
*206 la_data_in[64]
*207 la_data_in[65]
*208 la_data_in[66]
*209 la_data_in[67]
*210 la_data_in[68]
*211 la_data_in[69]
*212 la_data_in[6]
*213 la_data_in[70]
*214 la_data_in[71]
*215 la_data_in[72]
*216 la_data_in[73]
*217 la_data_in[74]
*218 la_data_in[75]
*219 la_data_in[76]
*220 la_data_in[77]
*221 la_data_in[78]
*222 la_data_in[79]
*223 la_data_in[7]
*224 la_data_in[80]
*225 la_data_in[81]
*226 la_data_in[82]
*227 la_data_in[83]
*228 la_data_in[84]
*229 la_data_in[85]
*230 la_data_in[86]
*231 la_data_in[87]
*232 la_data_in[88]
*233 la_data_in[89]
*234 la_data_in[8]
*235 la_data_in[90]
*236 la_data_in[91]
*237 la_data_in[92]
*238 la_data_in[93]
*239 la_data_in[94]
*240 la_data_in[95]
*241 la_data_in[96]
*242 la_data_in[97]
*243 la_data_in[98]
*244 la_data_in[99]
*245 la_data_in[9]
*246 la_data_out[0]
*247 net164
*248 net165
*249 net166
*250 net167
*251 net168
*252 net169
*253 net170
*254 net171
*255 net172
*256 net173
*257 la_data_out[10]
*258 net174
*259 net175
*260 net176
*261 net177
*262 net178
*263 net179
*264 net180
*265 net181
*266 net182
*267 net183
*268 la_data_out[11]
*269 net184
*270 net185
*271 net186
*272 net187
*273 net188
*274 net189
*275 net190
*276 net191
*277 la_data_out[12]
*278 la_data_out[13]
*279 la_data_out[14]
*280 la_data_out[15]
*281 la_data_out[16]
*282 la_data_out[17]
*283 la_data_out[18]
*284 la_data_out[19]
*285 la_data_out[1]
*286 la_data_out[20]
*287 la_data_out[21]
*288 net86
*289 net87
*290 net88
*291 net89
*292 net90
*293 net91
*294 net92
*295 net93
*296 la_data_out[2]
*297 net94
*298 net95
*299 net96
*300 net97
*301 net98
*302 net99
*303 net100
*304 net101
*305 net102
*306 net103
*307 la_data_out[3]
*308 net104
*309 net105
*310 net106
*311 net107
*312 net108
*313 net109
*314 net110
*315 net111
*316 net112
*317 net113
*318 net82
*319 net114
*320 net115
*321 net116
*322 net117
*323 net118
*324 net119
*325 net120
*326 net121
*327 net122
*328 net123
*329 net83
*330 net124
*331 net125
*332 net126
*333 net127
*334 net128
*335 net129
*336 net130
*337 net131
*338 net132
*339 net133
*340 net84
*341 net134
*342 net135
*343 net136
*344 net137
*345 net138
*346 net139
*347 net140
*348 net141
*349 net142
*350 net143
*351 net85
*352 net144
*353 net145
*354 net146
*355 net147
*356 net148
*357 net149
*358 net150
*359 net151
*360 net152
*361 net153
*362 la_data_out[8]
*363 net154
*364 net155
*365 net156
*366 net157
*367 net158
*368 net159
*369 net160
*370 net161
*371 net162
*372 net163
*373 la_data_out[9]
*374 la_oenb[0]
*375 la_oenb[100]
*376 la_oenb[101]
*377 la_oenb[102]
*378 la_oenb[103]
*379 la_oenb[104]
*380 la_oenb[105]
*381 la_oenb[106]
*382 la_oenb[107]
*383 la_oenb[108]
*384 la_oenb[109]
*385 la_oenb[10]
*386 la_oenb[110]
*387 la_oenb[111]
*388 la_oenb[112]
*389 la_oenb[113]
*390 la_oenb[114]
*391 la_oenb[115]
*392 la_oenb[116]
*393 la_oenb[117]
*394 la_oenb[118]
*395 la_oenb[119]
*396 la_oenb[11]
*397 la_oenb[120]
*398 la_oenb[121]
*399 la_oenb[122]
*400 la_oenb[123]
*401 la_oenb[124]
*402 la_oenb[125]
*403 la_oenb[126]
*404 la_oenb[127]
*405 la_oenb[12]
*406 la_oenb[13]
*407 la_oenb[14]
*408 la_oenb[15]
*409 la_oenb[16]
*410 la_oenb[17]
*411 la_oenb[18]
*412 la_oenb[19]
*413 la_oenb[1]
*414 la_oenb[20]
*415 la_oenb[21]
*416 la_oenb[22]
*417 la_oenb[23]
*418 la_oenb[24]
*419 la_oenb[25]
*420 la_oenb[26]
*421 la_oenb[27]
*422 la_oenb[28]
*423 la_oenb[29]
*424 la_oenb[2]
*425 la_oenb[30]
*426 la_oenb[31]
*427 la_oenb[32]
*428 la_oenb[33]
*429 la_oenb[34]
*430 la_oenb[35]
*431 la_oenb[36]
*432 la_oenb[37]
*433 la_oenb[38]
*434 la_oenb[39]
*435 la_oenb[3]
*436 la_oenb[40]
*437 la_oenb[41]
*438 la_oenb[42]
*439 la_oenb[43]
*440 la_oenb[44]
*441 la_oenb[45]
*442 la_oenb[46]
*443 la_oenb[47]
*444 la_oenb[48]
*445 la_oenb[49]
*446 la_oenb[4]
*447 la_oenb[50]
*448 la_oenb[51]
*449 la_oenb[52]
*450 la_oenb[53]
*451 la_oenb[54]
*452 la_oenb[55]
*453 la_oenb[56]
*454 la_oenb[57]
*455 la_oenb[58]
*456 la_oenb[59]
*457 la_oenb[5]
*458 la_oenb[60]
*459 la_oenb[61]
*460 la_oenb[62]
*461 la_oenb[63]
*462 la_oenb[64]
*463 la_oenb[65]
*464 la_oenb[66]
*465 la_oenb[67]
*466 la_oenb[68]
*467 la_oenb[69]
*468 la_oenb[6]
*469 la_oenb[70]
*470 la_oenb[71]
*471 la_oenb[72]
*472 la_oenb[73]
*473 la_oenb[74]
*474 la_oenb[75]
*475 la_oenb[76]
*476 la_oenb[77]
*477 la_oenb[78]
*478 la_oenb[79]
*479 la_oenb[7]
*480 la_oenb[80]
*481 la_oenb[81]
*482 la_oenb[82]
*483 la_oenb[83]
*484 la_oenb[84]
*485 la_oenb[85]
*486 la_oenb[86]
*487 la_oenb[87]
*488 la_oenb[88]
*489 la_oenb[89]
*490 la_oenb[8]
*491 la_oenb[90]
*492 la_oenb[91]
*493 la_oenb[92]
*494 la_oenb[93]
*495 la_oenb[94]
*496 la_oenb[95]
*497 la_oenb[96]
*498 la_oenb[97]
*499 la_oenb[98]
*500 la_oenb[99]
*501 la_oenb[9]
*504 wb_clk_i
*505 wb_rst_i
*506 net271
*507 wbs_adr_i[0]
*508 wbs_adr_i[10]
*509 wbs_adr_i[11]
*510 wbs_adr_i[12]
*511 wbs_adr_i[13]
*512 wbs_adr_i[14]
*513 wbs_adr_i[15]
*514 wbs_adr_i[16]
*515 wbs_adr_i[17]
*516 wbs_adr_i[18]
*517 wbs_adr_i[19]
*518 wbs_adr_i[1]
*519 wbs_adr_i[20]
*520 wbs_adr_i[21]
*521 wbs_adr_i[22]
*522 wbs_adr_i[23]
*523 wbs_adr_i[24]
*524 wbs_adr_i[25]
*525 wbs_adr_i[26]
*526 wbs_adr_i[27]
*527 wbs_adr_i[28]
*528 wbs_adr_i[29]
*529 wbs_adr_i[2]
*530 wbs_adr_i[30]
*531 wbs_adr_i[31]
*532 wbs_adr_i[3]
*533 wbs_adr_i[4]
*534 wbs_adr_i[5]
*535 wbs_adr_i[6]
*536 wbs_adr_i[7]
*537 wbs_adr_i[8]
*538 wbs_adr_i[9]
*539 wbs_cyc_i
*540 wbs_dat_i[0]
*541 wbs_dat_i[10]
*542 wbs_dat_i[11]
*543 wbs_dat_i[12]
*544 wbs_dat_i[13]
*545 wbs_dat_i[14]
*546 wbs_dat_i[15]
*547 wbs_dat_i[16]
*548 wbs_dat_i[17]
*549 wbs_dat_i[18]
*550 wbs_dat_i[19]
*551 wbs_dat_i[1]
*552 wbs_dat_i[20]
*553 wbs_dat_i[21]
*554 wbs_dat_i[22]
*555 wbs_dat_i[23]
*556 wbs_dat_i[24]
*557 wbs_dat_i[25]
*558 wbs_dat_i[26]
*559 wbs_dat_i[27]
*560 wbs_dat_i[28]
*561 wbs_dat_i[29]
*562 wbs_dat_i[2]
*563 wbs_dat_i[30]
*564 wbs_dat_i[31]
*565 wbs_dat_i[3]
*566 wbs_dat_i[4]
*567 wbs_dat_i[5]
*568 wbs_dat_i[6]
*569 wbs_dat_i[7]
*570 wbs_dat_i[8]
*571 wbs_dat_i[9]
*572 wbs_dat_o[0]
*573 wbs_dat_o[10]
*574 wbs_dat_o[11]
*575 wbs_dat_o[12]
*576 wbs_dat_o[13]
*577 wbs_dat_o[14]
*578 wbs_dat_o[15]
*579 wbs_dat_o[16]
*580 wbs_dat_o[17]
*581 wbs_dat_o[18]
*582 wbs_dat_o[19]
*583 wbs_dat_o[1]
*584 wbs_dat_o[20]
*585 wbs_dat_o[21]
*586 wbs_dat_o[22]
*587 wbs_dat_o[23]
*588 wbs_dat_o[24]
*589 net272
*590 net273
*591 net274
*592 net275
*593 net276
*594 wbs_dat_o[2]
*595 net277
*596 net278
*597 wbs_dat_o[3]
*598 wbs_dat_o[4]
*599 wbs_dat_o[5]
*600 wbs_dat_o[6]
*601 wbs_dat_o[7]
*602 wbs_dat_o[8]
*603 wbs_dat_o[9]
*604 wbs_sel_i[0]
*605 wbs_sel_i[1]
*606 wbs_sel_i[2]
*607 wbs_sel_i[3]
*608 wbs_stb_i
*609 wbs_we_i
*610 _000_
*611 _001_
*612 _002_
*613 _003_
*614 _004_
*615 _005_
*616 _006_
*617 _007_
*618 _008_
*619 _009_
*620 _010_
*621 _011_
*622 _012_
*623 _013_
*624 _014_
*625 _015_
*626 _016_
*627 _017_
*628 _018_
*629 _019_
*630 _020_
*631 _021_
*632 _022_
*633 _023_
*634 _024_
*635 _025_
*636 _026_
*637 _027_
*638 _028_
*639 _029_
*640 _030_
*641 _031_
*642 _032_
*643 _033_
*644 _034_
*645 _035_
*646 _036_
*647 _037_
*648 _038_
*649 _039_
*650 _040_
*651 _041_
*652 _042_
*653 _043_
*654 _044_
*655 _045_
*656 _046_
*657 _047_
*658 _048_
*659 _049_
*660 _050_
*661 _051_
*662 _052_
*663 _053_
*664 _054_
*665 _055_
*666 _056_
*667 _057_
*668 _058_
*669 _059_
*670 _060_
*671 _061_
*672 _062_
*673 _063_
*674 _064_
*675 _065_
*676 _066_
*677 _067_
*678 _068_
*679 _069_
*680 _070_
*681 _071_
*682 _072_
*683 _073_
*684 _074_
*685 _075_
*686 _076_
*687 _077_
*688 _078_
*689 _079_
*690 _080_
*691 _081_
*692 _082_
*693 _083_
*694 _084_
*695 _085_
*696 _086_
*697 _087_
*698 _088_
*699 _089_
*700 _090_
*701 _091_
*702 _092_
*703 _093_
*704 _094_
*705 _095_
*706 _096_
*707 _097_
*708 _098_
*709 _099_
*710 _100_
*711 _101_
*712 _102_
*713 _103_
*714 _104_
*715 _105_
*716 _106_
*717 _107_
*718 _108_
*719 _109_
*720 _110_
*721 _111_
*722 _112_
*723 _113_
*724 _114_
*725 _115_
*726 _116_
*727 _117_
*728 _118_
*729 _119_
*730 _120_
*731 _121_
*732 _122_
*733 _123_
*734 _124_
*735 _125_
*736 _126_
*737 _127_
*738 _128_
*739 _129_
*740 _130_
*741 _131_
*742 _132_
*743 _133_
*744 _134_
*745 _135_
*746 _136_
*747 _137_
*748 _138_
*749 _139_
*750 _140_
*751 _141_
*752 _142_
*753 _143_
*754 _144_
*755 _145_
*756 _146_
*757 _147_
*758 _148_
*759 _149_
*760 _150_
*761 _151_
*762 _152_
*763 _153_
*764 _154_
*765 _155_
*766 _156_
*767 _157_
*768 _158_
*769 _159_
*770 _160_
*771 _161_
*772 _162_
*773 _163_
*774 _164_
*775 _165_
*776 _166_
*777 _167_
*778 _168_
*779 _169_
*780 _170_
*781 _171_
*782 _172_
*783 _173_
*784 _174_
*785 _175_
*786 _176_
*787 _177_
*788 _178_
*789 _179_
*790 _180_
*791 _181_
*792 _182_
*793 _183_
*794 _184_
*795 _185_
*796 _186_
*797 _187_
*798 _188_
*799 _189_
*800 _190_
*801 _191_
*802 _192_
*803 _193_
*804 _194_
*805 _195_
*806 _196_
*807 _197_
*808 _198_
*809 _199_
*810 _200_
*811 _201_
*812 _202_
*813 _203_
*814 _204_
*815 _205_
*816 _206_
*817 _207_
*818 _208_
*819 clknet_0_wb_clk_i
*820 clknet_3_0__leaf_wb_clk_i
*821 clknet_3_1__leaf_wb_clk_i
*822 clknet_3_2__leaf_wb_clk_i
*823 clknet_3_3__leaf_wb_clk_i
*824 clknet_3_4__leaf_wb_clk_i
*825 clknet_3_5__leaf_wb_clk_i
*826 clknet_3_6__leaf_wb_clk_i
*827 clknet_3_7__leaf_wb_clk_i
*828 net1
*829 net10
*830 net11
*831 net12
*832 net13
*833 net14
*834 net15
*835 net16
*836 net17
*837 net18
*838 net19
*839 net2
*840 net20
*841 net21
*842 net22
*843 net23
*844 net24
*845 net25
*846 net26
*847 net27
*848 net28
*849 net29
*850 net3
*851 net30
*852 net31
*853 net32
*854 net33
*855 net34
*856 net35
*857 net36
*858 net37
*859 net38
*860 net39
*861 net4
*862 net40
*863 net41
*864 net42
*865 net43
*866 net44
*867 net45
*868 net46
*869 net47
*870 net48
*871 net49
*872 net5
*873 net50
*874 net51
*875 net52
*876 net53
*877 net54
*878 net55
*879 net56
*880 net57
*881 net58
*882 net59
*883 net6
*884 net60
*885 net61
*886 net62
*887 net63
*888 net64
*889 net65
*890 net66
*891 net67
*892 net68
*893 net69
*894 net7
*895 net70
*896 net71
*897 net72
*898 net73
*899 net74
*900 net75
*901 net76
*902 net77
*903 net78
*904 net79
*905 net8
*906 net80
*907 net81
*908 net9
*909 pixel_fsm0\.adj_max_clk\[0\]
*910 pixel_fsm0\.adj_max_clk\[1\]
*911 pixel_fsm0\.adj_max_clk\[2\]
*912 pixel_fsm0\.adj_max_clk\[3\]
*913 pixel_fsm0\.adj_max_clk\[4\]
*914 pixel_fsm0\.adj_max_clk\[5\]
*915 pixel_fsm0\.adj_max_clk\[6\]
*916 pixel_fsm0\.adj_max_clk\[7\]
*917 pixel_fsm0\.adj_max_clk\[8\]
*918 pixel_fsm0\.adj_max_clk\[9\]
*919 pixel_fsm0\.adj_timer_m_i
*920 pixel_fsm0\.data_in
*921 pixel_fsm0\.inst1\.next_state\[0\]
*922 pixel_fsm0\.inst1\.next_state\[1\]
*923 pixel_fsm0\.inst1\.next_state\[2\]
*924 pixel_fsm0\.inst1\.pxl_start_i
*925 pixel_fsm0\.inst1\.state\[0\]
*926 pixel_fsm0\.inst1\.state\[1\]
*927 pixel_fsm0\.inst1\.state\[2\]
*928 pixel_fsm0\.inst2\.loc_max_clk\[0\]
*929 pixel_fsm0\.inst2\.loc_max_clk\[1\]
*930 pixel_fsm0\.inst2\.loc_max_clk\[2\]
*931 pixel_fsm0\.inst2\.loc_max_clk\[3\]
*932 pixel_fsm0\.inst2\.loc_max_clk\[4\]
*933 pixel_fsm0\.inst2\.loc_max_clk\[5\]
*934 pixel_fsm0\.inst2\.loc_max_clk\[6\]
*935 pixel_fsm0\.inst2\.loc_max_clk\[7\]
*936 pixel_fsm0\.inst2\.loc_max_clk\[8\]
*937 pixel_fsm0\.inst2\.loc_max_clk\[9\]
*938 pixel_fsm0\.inst4\.pixel_count_max
*939 pixel_fsm0\.loc_timer_m_i
*940 pixel_fsm0\.pxl_done_i
*941 ANTENNA__250__B1
*942 ANTENNA__252__A2
*943 ANTENNA__265__A
*944 ANTENNA__270__A
*945 ANTENNA__272__A1
*946 ANTENNA__272__C1
*947 ANTENNA__274__C1
*948 ANTENNA__276__C1
*949 ANTENNA__278__C1
*950 ANTENNA__281__A
*951 ANTENNA__284__A
*952 ANTENNA__296__A
*953 ANTENNA__299__A
*954 ANTENNA__311__A
*955 ANTENNA__326__A
*956 ANTENNA__344__A
*957 ANTENNA__350__A
*958 ANTENNA__355__A
*959 ANTENNA__395__A
*960 ANTENNA__409__A
*961 ANTENNA__420__C1
*962 ANTENNA__446__SET_B
*963 ANTENNA_clkbuf_0_wb_clk_i_A
*964 ANTENNA_clkbuf_3_0__f_wb_clk_i_A
*965 ANTENNA_clkbuf_3_1__f_wb_clk_i_A
*966 ANTENNA_clkbuf_3_2__f_wb_clk_i_A
*967 ANTENNA_clkbuf_3_3__f_wb_clk_i_A
*968 ANTENNA_clkbuf_3_4__f_wb_clk_i_A
*969 ANTENNA_clkbuf_3_5__f_wb_clk_i_A
*970 ANTENNA_clkbuf_3_6__f_wb_clk_i_A
*971 ANTENNA_clkbuf_3_7__f_wb_clk_i_A
*972 ANTENNA_input10_A
*973 ANTENNA_input11_A
*974 ANTENNA_input12_A
*975 ANTENNA_input13_A
*976 ANTENNA_input14_A
*977 ANTENNA_input15_A
*978 ANTENNA_input16_A
*979 ANTENNA_input17_A
*980 ANTENNA_input18_A
*981 ANTENNA_input19_A
*982 ANTENNA_input1_A
*983 ANTENNA_input20_A
*984 ANTENNA_input21_A
*985 ANTENNA_input22_A
*986 ANTENNA_input23_A
*987 ANTENNA_input24_A
*988 ANTENNA_input25_A
*989 ANTENNA_input26_A
*990 ANTENNA_input27_A
*991 ANTENNA_input28_A
*992 ANTENNA_input29_A
*993 ANTENNA_input2_A
*994 ANTENNA_input30_A
*995 ANTENNA_input31_A
*996 ANTENNA_input32_A
*997 ANTENNA_input33_A
*998 ANTENNA_input34_A
*999 ANTENNA_input3_A
*1000 ANTENNA_input4_A
*1001 ANTENNA_input5_A
*1002 ANTENNA_input6_A
*1003 ANTENNA_input7_A
*1004 ANTENNA_input8_A
*1005 ANTENNA_input9_A
*1006 ANTENNA_output45_A
*1007 FILLER_0_100
*1008 FILLER_0_108
*1009 FILLER_0_11
*1010 FILLER_0_116
*1011 FILLER_0_136
*1012 FILLER_0_141
*1013 FILLER_0_148
*1014 FILLER_0_156
*1015 FILLER_0_164
*1016 FILLER_0_169
*1017 FILLER_0_17
*1018 FILLER_0_178
*1019 FILLER_0_184
*1020 FILLER_0_191
*1021 FILLER_0_195
*1022 FILLER_0_197
*1023 FILLER_0_203
*1024 FILLER_0_211
*1025 FILLER_0_215
*1026 FILLER_0_220
*1027 FILLER_0_225
*1028 FILLER_0_232
*1029 FILLER_0_24
*1030 FILLER_0_240
*1031 FILLER_0_248
*1032 FILLER_0_253
*1033 FILLER_0_260
*1034 FILLER_0_268
*1035 FILLER_0_276
*1036 FILLER_0_281
*1037 FILLER_0_289
*1038 FILLER_0_297
*1039 FILLER_0_304
*1040 FILLER_0_309
*1041 FILLER_0_31
*1042 FILLER_0_318
*1043 FILLER_0_325
*1044 FILLER_0_332
*1045 FILLER_0_337
*1046 FILLER_0_346
*1047 FILLER_0_353
*1048 FILLER_0_360
*1049 FILLER_0_365
*1050 FILLER_0_369
*1051 FILLER_0_376
*1052 FILLER_0_38
*1053 FILLER_0_383
*1054 FILLER_0_391
*1055 FILLER_0_396
*1056 FILLER_0_403
*1057 FILLER_0_410
*1058 FILLER_0_418
*1059 FILLER_0_424
*1060 FILLER_0_431
*1061 FILLER_0_438
*1062 FILLER_0_446
*1063 FILLER_0_452
*1064 FILLER_0_459
*1065 FILLER_0_466
*1066 FILLER_0_474
*1067 FILLER_0_480
*1068 FILLER_0_487
*1069 FILLER_0_494
*1070 FILLER_0_5
*1071 FILLER_0_50
*1072 FILLER_0_502
*1073 FILLER_0_508
*1074 FILLER_0_515
*1075 FILLER_0_522
*1076 FILLER_0_530
*1077 FILLER_0_536
*1078 FILLER_0_543
*1079 FILLER_0_550
*1080 FILLER_0_558
*1081 FILLER_0_564
*1082 FILLER_0_57
*1083 FILLER_0_571
*1084 FILLER_0_578
*1085 FILLER_0_586
*1086 FILLER_0_592
*1087 FILLER_0_599
*1088 FILLER_0_606
*1089 FILLER_0_614
*1090 FILLER_0_620
*1091 FILLER_0_627
*1092 FILLER_0_634
*1093 FILLER_0_642
*1094 FILLER_0_645
*1095 FILLER_0_657
*1096 FILLER_0_669
*1097 FILLER_0_67
*1098 FILLER_0_673
*1099 FILLER_0_685
*1100 FILLER_0_697
*1101 FILLER_0_701
*1102 FILLER_0_713
*1103 FILLER_0_725
*1104 FILLER_0_729
*1105 FILLER_0_75
*1106 FILLER_0_80
*1107 FILLER_0_85
*1108 FILLER_0_92
*1109 FILLER_100_109
*1110 FILLER_100_121
*1111 FILLER_100_133
*1112 FILLER_100_139
*1113 FILLER_100_141
*1114 FILLER_100_15
*1115 FILLER_100_153
*1116 FILLER_100_165
*1117 FILLER_100_177
*1118 FILLER_100_189
*1119 FILLER_100_195
*1120 FILLER_100_197
*1121 FILLER_100_209
*1122 FILLER_100_221
*1123 FILLER_100_233
*1124 FILLER_100_245
*1125 FILLER_100_251
*1126 FILLER_100_256
*1127 FILLER_100_268
*1128 FILLER_100_27
*1129 FILLER_100_280
*1130 FILLER_100_29
*1131 FILLER_100_292
*1132 FILLER_100_3
*1133 FILLER_100_304
*1134 FILLER_100_309
*1135 FILLER_100_321
*1136 FILLER_100_333
*1137 FILLER_100_345
*1138 FILLER_100_357
*1139 FILLER_100_363
*1140 FILLER_100_365
*1141 FILLER_100_377
*1142 FILLER_100_389
*1143 FILLER_100_401
*1144 FILLER_100_41
*1145 FILLER_100_413
*1146 FILLER_100_419
*1147 FILLER_100_421
*1148 FILLER_100_433
*1149 FILLER_100_437
*1150 FILLER_100_441
*1151 FILLER_100_453
*1152 FILLER_100_465
*1153 FILLER_100_473
*1154 FILLER_100_477
*1155 FILLER_100_489
*1156 FILLER_100_501
*1157 FILLER_100_513
*1158 FILLER_100_525
*1159 FILLER_100_53
*1160 FILLER_100_531
*1161 FILLER_100_533
*1162 FILLER_100_545
*1163 FILLER_100_557
*1164 FILLER_100_569
*1165 FILLER_100_581
*1166 FILLER_100_587
*1167 FILLER_100_589
*1168 FILLER_100_601
*1169 FILLER_100_613
*1170 FILLER_100_625
*1171 FILLER_100_637
*1172 FILLER_100_643
*1173 FILLER_100_645
*1174 FILLER_100_65
*1175 FILLER_100_657
*1176 FILLER_100_669
*1177 FILLER_100_681
*1178 FILLER_100_689
*1179 FILLER_100_693
*1180 FILLER_100_699
*1181 FILLER_100_701
*1182 FILLER_100_713
*1183 FILLER_100_725
*1184 FILLER_100_77
*1185 FILLER_100_83
*1186 FILLER_100_85
*1187 FILLER_100_97
*1188 FILLER_101_108
*1189 FILLER_101_113
*1190 FILLER_101_117
*1191 FILLER_101_128
*1192 FILLER_101_135
*1193 FILLER_101_139
*1194 FILLER_101_141
*1195 FILLER_101_146
*1196 FILLER_101_15
*1197 FILLER_101_153
*1198 FILLER_101_164
*1199 FILLER_101_172
*1200 FILLER_101_178
*1201 FILLER_101_182
*1202 FILLER_101_189
*1203 FILLER_101_195
*1204 FILLER_101_200
*1205 FILLER_101_207
*1206 FILLER_101_215
*1207 FILLER_101_219
*1208 FILLER_101_223
*1209 FILLER_101_228
*1210 FILLER_101_232
*1211 FILLER_101_236
*1212 FILLER_101_243
*1213 FILLER_101_251
*1214 FILLER_101_253
*1215 FILLER_101_257
*1216 FILLER_101_261
*1217 FILLER_101_265
*1218 FILLER_101_269
*1219 FILLER_101_27
*1220 FILLER_101_276
*1221 FILLER_101_281
*1222 FILLER_101_29
*1223 FILLER_101_290
*1224 FILLER_101_297
*1225 FILLER_101_3
*1226 FILLER_101_304
*1227 FILLER_101_309
*1228 FILLER_101_315
*1229 FILLER_101_321
*1230 FILLER_101_325
*1231 FILLER_101_332
*1232 FILLER_101_337
*1233 FILLER_101_344
*1234 FILLER_101_351
*1235 FILLER_101_360
*1236 FILLER_101_365
*1237 FILLER_101_369
*1238 FILLER_101_377
*1239 FILLER_101_38
*1240 FILLER_101_381
*1241 FILLER_101_388
*1242 FILLER_101_393
*1243 FILLER_101_399
*1244 FILLER_101_406
*1245 FILLER_101_418
*1246 FILLER_101_424
*1247 FILLER_101_431
*1248 FILLER_101_438
*1249 FILLER_101_446
*1250 FILLER_101_449
*1251 FILLER_101_45
*1252 FILLER_101_453
*1253 FILLER_101_460
*1254 FILLER_101_471
*1255 FILLER_101_475
*1256 FILLER_101_480
*1257 FILLER_101_489
*1258 FILLER_101_496
*1259 FILLER_101_508
*1260 FILLER_101_515
*1261 FILLER_101_52
*1262 FILLER_101_521
*1263 FILLER_101_525
*1264 FILLER_101_531
*1265 FILLER_101_536
*1266 FILLER_101_543
*1267 FILLER_101_550
*1268 FILLER_101_558
*1269 FILLER_101_564
*1270 FILLER_101_57
*1271 FILLER_101_571
*1272 FILLER_101_575
*1273 FILLER_101_579
*1274 FILLER_101_587
*1275 FILLER_101_592
*1276 FILLER_101_599
*1277 FILLER_101_606
*1278 FILLER_101_614
*1279 FILLER_101_620
*1280 FILLER_101_627
*1281 FILLER_101_63
*1282 FILLER_101_634
*1283 FILLER_101_642
*1284 FILLER_101_648
*1285 FILLER_101_655
*1286 FILLER_101_662
*1287 FILLER_101_670
*1288 FILLER_101_676
*1289 FILLER_101_683
*1290 FILLER_101_69
*1291 FILLER_101_690
*1292 FILLER_101_698
*1293 FILLER_101_701
*1294 FILLER_101_705
*1295 FILLER_101_712
*1296 FILLER_101_724
*1297 FILLER_101_729
*1298 FILLER_101_73
*1299 FILLER_101_80
*1300 FILLER_101_85
*1301 FILLER_101_92
*1302 FILLER_101_99
*1303 FILLER_10_102
*1304 FILLER_10_111
*1305 FILLER_10_118
*1306 FILLER_10_127
*1307 FILLER_10_136
*1308 FILLER_10_144
*1309 FILLER_10_148
*1310 FILLER_10_15
*1311 FILLER_10_154
*1312 FILLER_10_180
*1313 FILLER_10_191
*1314 FILLER_10_195
*1315 FILLER_10_200
*1316 FILLER_10_206
*1317 FILLER_10_215
*1318 FILLER_10_221
*1319 FILLER_10_243
*1320 FILLER_10_251
*1321 FILLER_10_253
*1322 FILLER_10_259
*1323 FILLER_10_263
*1324 FILLER_10_27
*1325 FILLER_10_270
*1326 FILLER_10_278
*1327 FILLER_10_282
*1328 FILLER_10_29
*1329 FILLER_10_295
*1330 FILLER_10_3
*1331 FILLER_10_303
*1332 FILLER_10_307
*1333 FILLER_10_321
*1334 FILLER_10_333
*1335 FILLER_10_345
*1336 FILLER_10_35
*1337 FILLER_10_357
*1338 FILLER_10_363
*1339 FILLER_10_365
*1340 FILLER_10_377
*1341 FILLER_10_389
*1342 FILLER_10_401
*1343 FILLER_10_413
*1344 FILLER_10_419
*1345 FILLER_10_421
*1346 FILLER_10_433
*1347 FILLER_10_44
*1348 FILLER_10_445
*1349 FILLER_10_457
*1350 FILLER_10_469
*1351 FILLER_10_475
*1352 FILLER_10_477
*1353 FILLER_10_489
*1354 FILLER_10_50
*1355 FILLER_10_501
*1356 FILLER_10_513
*1357 FILLER_10_525
*1358 FILLER_10_531
*1359 FILLER_10_533
*1360 FILLER_10_545
*1361 FILLER_10_557
*1362 FILLER_10_569
*1363 FILLER_10_581
*1364 FILLER_10_587
*1365 FILLER_10_589
*1366 FILLER_10_59
*1367 FILLER_10_601
*1368 FILLER_10_613
*1369 FILLER_10_625
*1370 FILLER_10_63
*1371 FILLER_10_637
*1372 FILLER_10_643
*1373 FILLER_10_645
*1374 FILLER_10_657
*1375 FILLER_10_669
*1376 FILLER_10_681
*1377 FILLER_10_693
*1378 FILLER_10_699
*1379 FILLER_10_701
*1380 FILLER_10_713
*1381 FILLER_10_725
*1382 FILLER_10_80
*1383 FILLER_10_88
*1384 FILLER_10_92
*1385 FILLER_10_96
*1386 FILLER_11_107
*1387 FILLER_11_111
*1388 FILLER_11_115
*1389 FILLER_11_122
*1390 FILLER_11_132
*1391 FILLER_11_140
*1392 FILLER_11_146
*1393 FILLER_11_15
*1394 FILLER_11_153
*1395 FILLER_11_164
*1396 FILLER_11_185
*1397 FILLER_11_199
*1398 FILLER_11_205
*1399 FILLER_11_211
*1400 FILLER_11_217
*1401 FILLER_11_223
*1402 FILLER_11_225
*1403 FILLER_11_239
*1404 FILLER_11_267
*1405 FILLER_11_27
*1406 FILLER_11_279
*1407 FILLER_11_287
*1408 FILLER_11_295
*1409 FILLER_11_3
*1410 FILLER_11_306
*1411 FILLER_11_318
*1412 FILLER_11_330
*1413 FILLER_11_337
*1414 FILLER_11_349
*1415 FILLER_11_361
*1416 FILLER_11_373
*1417 FILLER_11_385
*1418 FILLER_11_39
*1419 FILLER_11_391
*1420 FILLER_11_393
*1421 FILLER_11_405
*1422 FILLER_11_417
*1423 FILLER_11_429
*1424 FILLER_11_441
*1425 FILLER_11_447
*1426 FILLER_11_449
*1427 FILLER_11_461
*1428 FILLER_11_473
*1429 FILLER_11_485
*1430 FILLER_11_497
*1431 FILLER_11_503
*1432 FILLER_11_505
*1433 FILLER_11_517
*1434 FILLER_11_52
*1435 FILLER_11_529
*1436 FILLER_11_541
*1437 FILLER_11_553
*1438 FILLER_11_559
*1439 FILLER_11_561
*1440 FILLER_11_57
*1441 FILLER_11_573
*1442 FILLER_11_585
*1443 FILLER_11_597
*1444 FILLER_11_609
*1445 FILLER_11_615
*1446 FILLER_11_617
*1447 FILLER_11_629
*1448 FILLER_11_63
*1449 FILLER_11_641
*1450 FILLER_11_653
*1451 FILLER_11_665
*1452 FILLER_11_67
*1453 FILLER_11_671
*1454 FILLER_11_673
*1455 FILLER_11_685
*1456 FILLER_11_697
*1457 FILLER_11_709
*1458 FILLER_11_721
*1459 FILLER_11_727
*1460 FILLER_11_729
*1461 FILLER_11_78
*1462 FILLER_11_98
*1463 FILLER_12_102
*1464 FILLER_12_116
*1465 FILLER_12_128
*1466 FILLER_12_132
*1467 FILLER_12_136
*1468 FILLER_12_141
*1469 FILLER_12_145
*1470 FILLER_12_15
*1471 FILLER_12_152
*1472 FILLER_12_159
*1473 FILLER_12_166
*1474 FILLER_12_172
*1475 FILLER_12_175
*1476 FILLER_12_182
*1477 FILLER_12_191
*1478 FILLER_12_195
*1479 FILLER_12_205
*1480 FILLER_12_211
*1481 FILLER_12_228
*1482 FILLER_12_240
*1483 FILLER_12_253
*1484 FILLER_12_258
*1485 FILLER_12_27
*1486 FILLER_12_270
*1487 FILLER_12_282
*1488 FILLER_12_287
*1489 FILLER_12_29
*1490 FILLER_12_299
*1491 FILLER_12_3
*1492 FILLER_12_307
*1493 FILLER_12_309
*1494 FILLER_12_321
*1495 FILLER_12_333
*1496 FILLER_12_345
*1497 FILLER_12_357
*1498 FILLER_12_363
*1499 FILLER_12_365
*1500 FILLER_12_377
*1501 FILLER_12_389
*1502 FILLER_12_401
*1503 FILLER_12_413
*1504 FILLER_12_419
*1505 FILLER_12_421
*1506 FILLER_12_433
*1507 FILLER_12_445
*1508 FILLER_12_45
*1509 FILLER_12_457
*1510 FILLER_12_469
*1511 FILLER_12_475
*1512 FILLER_12_477
*1513 FILLER_12_489
*1514 FILLER_12_501
*1515 FILLER_12_513
*1516 FILLER_12_525
*1517 FILLER_12_531
*1518 FILLER_12_533
*1519 FILLER_12_545
*1520 FILLER_12_557
*1521 FILLER_12_569
*1522 FILLER_12_581
*1523 FILLER_12_587
*1524 FILLER_12_589
*1525 FILLER_12_59
*1526 FILLER_12_601
*1527 FILLER_12_613
*1528 FILLER_12_625
*1529 FILLER_12_637
*1530 FILLER_12_643
*1531 FILLER_12_645
*1532 FILLER_12_657
*1533 FILLER_12_669
*1534 FILLER_12_681
*1535 FILLER_12_693
*1536 FILLER_12_699
*1537 FILLER_12_701
*1538 FILLER_12_713
*1539 FILLER_12_725
*1540 FILLER_12_73
*1541 FILLER_12_79
*1542 FILLER_12_83
*1543 FILLER_12_85
*1544 FILLER_12_90
*1545 FILLER_12_96
*1546 FILLER_13_101
*1547 FILLER_13_109
*1548 FILLER_13_129
*1549 FILLER_13_143
*1550 FILLER_13_15
*1551 FILLER_13_153
*1552 FILLER_13_160
*1553 FILLER_13_171
*1554 FILLER_13_179
*1555 FILLER_13_190
*1556 FILLER_13_210
*1557 FILLER_13_216
*1558 FILLER_13_225
*1559 FILLER_13_233
*1560 FILLER_13_250
*1561 FILLER_13_262
*1562 FILLER_13_269
*1563 FILLER_13_27
*1564 FILLER_13_277
*1565 FILLER_13_285
*1566 FILLER_13_291
*1567 FILLER_13_295
*1568 FILLER_13_3
*1569 FILLER_13_304
*1570 FILLER_13_316
*1571 FILLER_13_328
*1572 FILLER_13_337
*1573 FILLER_13_349
*1574 FILLER_13_361
*1575 FILLER_13_373
*1576 FILLER_13_38
*1577 FILLER_13_385
*1578 FILLER_13_391
*1579 FILLER_13_393
*1580 FILLER_13_405
*1581 FILLER_13_417
*1582 FILLER_13_429
*1583 FILLER_13_44
*1584 FILLER_13_441
*1585 FILLER_13_447
*1586 FILLER_13_449
*1587 FILLER_13_461
*1588 FILLER_13_473
*1589 FILLER_13_48
*1590 FILLER_13_485
*1591 FILLER_13_497
*1592 FILLER_13_503
*1593 FILLER_13_505
*1594 FILLER_13_517
*1595 FILLER_13_529
*1596 FILLER_13_541
*1597 FILLER_13_553
*1598 FILLER_13_559
*1599 FILLER_13_561
*1600 FILLER_13_573
*1601 FILLER_13_585
*1602 FILLER_13_597
*1603 FILLER_13_609
*1604 FILLER_13_615
*1605 FILLER_13_617
*1606 FILLER_13_629
*1607 FILLER_13_63
*1608 FILLER_13_641
*1609 FILLER_13_653
*1610 FILLER_13_665
*1611 FILLER_13_67
*1612 FILLER_13_671
*1613 FILLER_13_673
*1614 FILLER_13_685
*1615 FILLER_13_697
*1616 FILLER_13_709
*1617 FILLER_13_721
*1618 FILLER_13_727
*1619 FILLER_13_729
*1620 FILLER_13_84
*1621 FILLER_13_92
*1622 FILLER_14_121
*1623 FILLER_14_127
*1624 FILLER_14_133
*1625 FILLER_14_139
*1626 FILLER_14_147
*1627 FILLER_14_15
*1628 FILLER_14_157
*1629 FILLER_14_164
*1630 FILLER_14_184
*1631 FILLER_14_192
*1632 FILLER_14_197
*1633 FILLER_14_209
*1634 FILLER_14_213
*1635 FILLER_14_234
*1636 FILLER_14_245
*1637 FILLER_14_251
*1638 FILLER_14_27
*1639 FILLER_14_273
*1640 FILLER_14_286
*1641 FILLER_14_29
*1642 FILLER_14_294
*1643 FILLER_14_3
*1644 FILLER_14_302
*1645 FILLER_14_315
*1646 FILLER_14_327
*1647 FILLER_14_339
*1648 FILLER_14_35
*1649 FILLER_14_351
*1650 FILLER_14_363
*1651 FILLER_14_365
*1652 FILLER_14_377
*1653 FILLER_14_389
*1654 FILLER_14_401
*1655 FILLER_14_413
*1656 FILLER_14_419
*1657 FILLER_14_421
*1658 FILLER_14_433
*1659 FILLER_14_445
*1660 FILLER_14_45
*1661 FILLER_14_457
*1662 FILLER_14_469
*1663 FILLER_14_475
*1664 FILLER_14_477
*1665 FILLER_14_489
*1666 FILLER_14_501
*1667 FILLER_14_513
*1668 FILLER_14_525
*1669 FILLER_14_531
*1670 FILLER_14_533
*1671 FILLER_14_545
*1672 FILLER_14_55
*1673 FILLER_14_557
*1674 FILLER_14_569
*1675 FILLER_14_581
*1676 FILLER_14_587
*1677 FILLER_14_589
*1678 FILLER_14_601
*1679 FILLER_14_613
*1680 FILLER_14_625
*1681 FILLER_14_637
*1682 FILLER_14_643
*1683 FILLER_14_645
*1684 FILLER_14_657
*1685 FILLER_14_669
*1686 FILLER_14_67
*1687 FILLER_14_681
*1688 FILLER_14_693
*1689 FILLER_14_699
*1690 FILLER_14_701
*1691 FILLER_14_713
*1692 FILLER_14_725