*SPEF "ieee 1481-1999"
*DESIGN "rlbp_macro"
*DATE "11:11:11 Fri 11 11, 1111"
*VENDOR "OpenRCX"
*PROGRAM "Parallel Extraction"
*VERSION "1.0"
*DESIGN_FLOW "NAME_SCOPE LOCAL" "PIN_CAP NONE"
*DIVIDER /
*DELIMITER :
*BUS_DELIMITER []
*T_UNIT 1 NS
*C_UNIT 1 PF
*R_UNIT 1 OHM
*L_UNIT 1 HENRY

*NAME_MAP
*1 io_in[0]
*2 io_in[10]
*3 io_in[11]
*4 io_in[12]
*5 io_in[13]
*6 io_in[14]
*7 io_in[15]
*8 io_in[16]
*9 io_in[17]
*10 io_in[18]
*11 io_in[19]
*12 io_in[1]
*13 io_in[20]
*14 io_in[21]
*15 io_in[22]
*16 io_in[23]
*17 io_in[24]
*18 io_in[25]
*19 io_in[26]
*20 io_in[27]
*21 io_in[28]
*22 io_in[29]
*23 io_in[2]
*24 io_in[30]
*25 io_in[31]
*26 io_in[32]
*27 io_in[33]
*28 io_in[34]
*29 io_in[35]
*30 io_in[36]
*31 io_in[37]
*32 io_in[3]
*33 io_in[4]
*34 io_in[5]
*35 io_in[6]
*36 io_in[7]
*37 io_in[8]
*38 io_in[9]
*39 net48
*40 net58
*41 net59
*42 net60
*43 net61
*44 net62
*45 net63
*46 net64
*47 net65
*48 net66
*49 net67
*50 net49
*51 net68
*52 net69
*53 net70
*54 net71
*55 net72
*56 net73
*57 net74
*58 net75
*59 net76
*60 net77
*61 net50
*62 net78
*63 net79
*64 net80
*65 net81
*66 net82
*67 net83
*68 net84
*69 net85
*70 net51
*71 net52
*72 net53
*73 net54
*74 net55
*75 net56
*76 net57
*77 net86
*78 net96
*79 net97
*80 net98
*81 net99
*82 net100
*83 net101
*84 net102
*85 net103
*86 net104
*87 net105
*88 net87
*89 net106
*90 net107
*91 net108
*92 net109
*93 net110
*94 net111
*95 net112
*96 net113
*97 net114
*98 net115
*99 net88
*100 net116
*101 net117
*102 net118
*103 net119
*104 net120
*105 net121
*106 net122
*107 net123
*108 net89
*109 net90
*110 net91
*111 net92
*112 net93
*113 net94
*114 net95
*115 net124
*116 net125
*117 net126
*118 la_data_in[0]
*119 la_data_in[100]
*120 la_data_in[101]
*121 la_data_in[102]
*122 la_data_in[103]
*123 la_data_in[104]
*124 la_data_in[105]
*125 la_data_in[106]
*126 la_data_in[107]
*127 la_data_in[108]
*128 la_data_in[109]
*129 la_data_in[10]
*130 la_data_in[110]
*131 la_data_in[111]
*132 la_data_in[112]
*133 la_data_in[113]
*134 la_data_in[114]
*135 la_data_in[115]
*136 la_data_in[116]
*137 la_data_in[117]
*138 la_data_in[118]
*139 la_data_in[119]
*140 la_data_in[11]
*141 la_data_in[120]
*142 la_data_in[121]
*143 la_data_in[122]
*144 la_data_in[123]
*145 la_data_in[124]
*146 la_data_in[125]
*147 la_data_in[126]
*148 la_data_in[127]
*149 la_data_in[12]
*150 la_data_in[13]
*151 la_data_in[14]
*152 la_data_in[15]
*153 la_data_in[16]
*154 la_data_in[17]
*155 la_data_in[18]
*156 la_data_in[19]
*157 la_data_in[1]
*158 la_data_in[20]
*159 la_data_in[21]
*160 la_data_in[22]
*161 la_data_in[23]
*162 la_data_in[24]
*163 la_data_in[25]
*164 la_data_in[26]
*165 la_data_in[27]
*166 la_data_in[28]
*167 la_data_in[29]
*168 la_data_in[2]
*169 la_data_in[30]
*170 la_data_in[31]
*171 la_data_in[32]
*172 la_data_in[33]
*173 la_data_in[34]
*174 la_data_in[35]
*175 la_data_in[36]
*176 la_data_in[37]
*177 la_data_in[38]
*178 la_data_in[39]
*179 la_data_in[3]
*180 la_data_in[40]
*181 la_data_in[41]
*182 la_data_in[42]
*183 la_data_in[43]
*184 la_data_in[44]
*185 la_data_in[45]
*186 la_data_in[46]
*187 la_data_in[47]
*188 la_data_in[48]
*189 la_data_in[49]
*190 la_data_in[4]
*191 la_data_in[50]
*192 la_data_in[51]
*193 la_data_in[52]
*194 la_data_in[53]
*195 la_data_in[54]
*196 la_data_in[55]
*197 la_data_in[56]
*198 la_data_in[57]
*199 la_data_in[58]
*200 la_data_in[59]
*201 la_data_in[5]
*202 la_data_in[60]
*203 la_data_in[61]
*204 la_data_in[62]
*205 la_data_in[63]
*206 la_data_in[64]
*207 la_data_in[65]
*208 la_data_in[66]
*209 la_data_in[67]
*210 la_data_in[68]
*211 la_data_in[69]
*212 la_data_in[6]
*213 la_data_in[70]
*214 la_data_in[71]
*215 la_data_in[72]
*216 la_data_in[73]
*217 la_data_in[74]
*218 la_data_in[75]
*219 la_data_in[76]
*220 la_data_in[77]
*221 la_data_in[78]
*222 la_data_in[79]
*223 la_data_in[7]
*224 la_data_in[80]
*225 la_data_in[81]
*226 la_data_in[82]
*227 la_data_in[83]
*228 la_data_in[84]
*229 la_data_in[85]
*230 la_data_in[86]
*231 la_data_in[87]
*232 la_data_in[88]
*233 la_data_in[89]
*234 la_data_in[8]
*235 la_data_in[90]
*236 la_data_in[91]
*237 la_data_in[92]
*238 la_data_in[93]
*239 la_data_in[94]
*240 la_data_in[95]
*241 la_data_in[96]
*242 la_data_in[97]
*243 la_data_in[98]
*244 la_data_in[99]
*245 la_data_in[9]
*246 net127
*247 net214
*248 net215
*249 net216
*250 net217
*251 net218
*252 net219
*253 net220
*254 net221
*255 net222
*256 net223
*257 net137
*258 net224
*259 net225
*260 net226
*261 net227
*262 net228
*263 net229
*264 net230
*265 net231
*266 net232
*267 net233
*268 net138
*269 net234
*270 net235
*271 net236
*272 net237
*273 net238
*274 net239
*275 net240
*276 net241
*277 net139
*278 net140
*279 net141
*280 net142
*281 net143
*282 net144
*283 net145
*284 net146
*285 net128
*286 net147
*287 net148
*288 net149
*289 net150
*290 net151
*291 net152
*292 net153
*293 net154
*294 net155
*295 net156
*296 net129
*297 net157
*298 net158
*299 net159
*300 net160
*301 net161
*302 net162
*303 net163
*304 net164
*305 net165
*306 net166
*307 net130
*308 net167
*309 net168
*310 net169
*311 net170
*312 net171
*313 net172
*314 net173
*315 net174
*316 net175
*317 net176
*318 net131
*319 net177
*320 net178
*321 net179
*322 net180
*323 net181
*324 net182
*325 net183
*326 net184
*327 net185
*328 net186
*329 net132
*330 net187
*331 net188
*332 net189
*333 net190
*334 la_data_out[64]
*335 la_data_out[65]
*336 la_data_out[66]
*337 la_data_out[67]
*338 la_data_out[68]
*339 la_data_out[69]
*340 net133
*341 la_data_out[70]
*342 la_data_out[71]
*343 la_data_out[72]
*344 la_data_out[73]
*345 la_data_out[74]
*346 la_data_out[75]
*347 la_data_out[76]
*348 net191
*349 net192
*350 net193
*351 net134
*352 net194
*353 net195
*354 net196
*355 net197
*356 net198
*357 net199
*358 net200
*359 net201
*360 net202
*361 net203
*362 net135
*363 net204
*364 net205
*365 net206
*366 net207
*367 net208
*368 net209
*369 net210
*370 net211
*371 net212
*372 net213
*373 net136
*374 la_oenb[0]
*375 la_oenb[100]
*376 la_oenb[101]
*377 la_oenb[102]
*378 la_oenb[103]
*379 la_oenb[104]
*380 la_oenb[105]
*381 la_oenb[106]
*382 la_oenb[107]
*383 la_oenb[108]
*384 la_oenb[109]
*385 la_oenb[10]
*386 la_oenb[110]
*387 la_oenb[111]
*388 la_oenb[112]
*389 la_oenb[113]
*390 la_oenb[114]
*391 la_oenb[115]
*392 la_oenb[116]
*393 la_oenb[117]
*394 la_oenb[118]
*395 la_oenb[119]
*396 la_oenb[11]
*397 la_oenb[120]
*398 la_oenb[121]
*399 la_oenb[122]
*400 la_oenb[123]
*401 la_oenb[124]
*402 la_oenb[125]
*403 la_oenb[126]
*404 la_oenb[127]
*405 la_oenb[12]
*406 la_oenb[13]
*407 la_oenb[14]
*408 la_oenb[15]
*409 la_oenb[16]
*410 la_oenb[17]
*411 la_oenb[18]
*412 la_oenb[19]
*413 la_oenb[1]
*414 la_oenb[20]
*415 la_oenb[21]
*416 la_oenb[22]
*417 la_oenb[23]
*418 la_oenb[24]
*419 la_oenb[25]
*420 la_oenb[26]
*421 la_oenb[27]
*422 la_oenb[28]
*423 la_oenb[29]
*424 la_oenb[2]
*425 la_oenb[30]
*426 la_oenb[31]
*427 la_oenb[32]
*428 la_oenb[33]
*429 la_oenb[34]
*430 la_oenb[35]
*431 la_oenb[36]
*432 la_oenb[37]
*433 la_oenb[38]
*434 la_oenb[39]
*435 la_oenb[3]
*436 la_oenb[40]
*437 la_oenb[41]
*438 la_oenb[42]
*439 la_oenb[43]
*440 la_oenb[44]
*441 la_oenb[45]
*442 la_oenb[46]
*443 la_oenb[47]
*444 la_oenb[48]
*445 la_oenb[49]
*446 la_oenb[4]
*447 la_oenb[50]
*448 la_oenb[51]
*449 la_oenb[52]
*450 la_oenb[53]
*451 la_oenb[54]
*452 la_oenb[55]
*453 la_oenb[56]
*454 la_oenb[57]
*455 la_oenb[58]
*456 la_oenb[59]
*457 la_oenb[5]
*458 la_oenb[60]
*459 la_oenb[61]
*460 la_oenb[62]
*461 la_oenb[63]
*462 la_oenb[64]
*463 la_oenb[65]
*464 la_oenb[66]
*465 la_oenb[67]
*466 la_oenb[68]
*467 la_oenb[69]
*468 la_oenb[6]
*469 la_oenb[70]
*470 la_oenb[71]
*471 la_oenb[72]
*472 la_oenb[73]
*473 la_oenb[74]
*474 la_oenb[75]
*475 la_oenb[76]
*476 la_oenb[77]
*477 la_oenb[78]
*478 la_oenb[79]
*479 la_oenb[7]
*480 la_oenb[80]
*481 la_oenb[81]
*482 la_oenb[82]
*483 la_oenb[83]
*484 la_oenb[84]
*485 la_oenb[85]
*486 la_oenb[86]
*487 la_oenb[87]
*488 la_oenb[88]
*489 la_oenb[89]
*490 la_oenb[8]
*491 la_oenb[90]
*492 la_oenb[91]
*493 la_oenb[92]
*494 la_oenb[93]
*495 la_oenb[94]
*496 la_oenb[95]
*497 la_oenb[96]
*498 la_oenb[97]
*499 la_oenb[98]
*500 la_oenb[99]
*501 la_oenb[9]
*502 net242
*505 wb_clk_i
*506 wb_rst_i
*507 net243
*508 wbs_adr_i[0]
*509 wbs_adr_i[10]
*510 wbs_adr_i[11]
*511 wbs_adr_i[12]
*512 wbs_adr_i[13]
*513 wbs_adr_i[14]
*514 wbs_adr_i[15]
*515 wbs_adr_i[16]
*516 wbs_adr_i[17]
*517 wbs_adr_i[18]
*518 wbs_adr_i[19]
*519 wbs_adr_i[1]
*520 wbs_adr_i[20]
*521 wbs_adr_i[21]
*522 wbs_adr_i[22]
*523 wbs_adr_i[23]
*524 wbs_adr_i[24]
*525 wbs_adr_i[25]
*526 wbs_adr_i[26]
*527 wbs_adr_i[27]
*528 wbs_adr_i[28]
*529 wbs_adr_i[29]
*530 wbs_adr_i[2]
*531 wbs_adr_i[30]
*532 wbs_adr_i[31]
*533 wbs_adr_i[3]
*534 wbs_adr_i[4]
*535 wbs_adr_i[5]
*536 wbs_adr_i[6]
*537 wbs_adr_i[7]
*538 wbs_adr_i[8]
*539 wbs_adr_i[9]
*540 wbs_cyc_i
*541 wbs_dat_i[0]
*542 wbs_dat_i[10]
*543 wbs_dat_i[11]
*544 wbs_dat_i[12]
*545 wbs_dat_i[13]
*546 wbs_dat_i[14]
*547 wbs_dat_i[15]
*548 wbs_dat_i[16]
*549 wbs_dat_i[17]
*550 wbs_dat_i[18]
*551 wbs_dat_i[19]
*552 wbs_dat_i[1]
*553 wbs_dat_i[20]
*554 wbs_dat_i[21]
*555 wbs_dat_i[22]
*556 wbs_dat_i[23]
*557 wbs_dat_i[24]
*558 wbs_dat_i[25]
*559 wbs_dat_i[26]
*560 wbs_dat_i[27]
*561 wbs_dat_i[28]
*562 wbs_dat_i[29]
*563 wbs_dat_i[2]
*564 wbs_dat_i[30]
*565 wbs_dat_i[31]
*566 wbs_dat_i[3]
*567 wbs_dat_i[4]
*568 wbs_dat_i[5]
*569 wbs_dat_i[6]
*570 wbs_dat_i[7]
*571 wbs_dat_i[8]
*572 wbs_dat_i[9]
*573 wbs_dat_o[0]
*574 wbs_dat_o[10]
*575 wbs_dat_o[11]
*576 net244
*577 net245
*578 net246
*579 net247
*580 net248
*581 net249
*582 net250
*583 net251
*584 wbs_dat_o[1]
*585 net252
*586 net253
*587 net254
*588 net255
*589 net256
*590 net257
*591 net258
*592 net259
*593 net260
*594 net261
*595 wbs_dat_o[2]
*596 net262
*597 net263
*598 wbs_dat_o[3]
*599 wbs_dat_o[4]
*600 wbs_dat_o[5]
*601 wbs_dat_o[6]
*602 wbs_dat_o[7]
*603 wbs_dat_o[8]
*604 wbs_dat_o[9]
*605 wbs_sel_i[0]
*606 wbs_sel_i[1]
*607 wbs_sel_i[2]
*608 wbs_sel_i[3]
*609 wbs_stb_i
*610 wbs_we_i
*611 _000_
*612 _001_
*613 _002_
*614 _003_
*615 _004_
*616 _005_
*617 _006_
*618 _007_
*619 _008_
*620 _009_
*621 _010_
*622 _011_
*623 _012_
*624 _013_
*625 _014_
*626 _015_
*627 _016_
*628 _017_
*629 _018_
*630 _019_
*631 _020_
*632 _021_
*633 _022_
*634 _023_
*635 _024_
*636 _025_
*637 _026_
*638 _027_
*639 _028_
*640 _029_
*641 _030_
*642 _031_
*643 _032_
*644 _033_
*645 _034_
*646 _035_
*647 _036_
*648 _037_
*649 _038_
*650 _039_
*651 _040_
*652 _041_
*653 _042_
*654 _043_
*655 _044_
*656 _045_
*657 _046_
*658 _047_
*659 _048_
*660 _049_
*661 _050_
*662 _051_
*663 _052_
*664 _053_
*665 _054_
*666 _055_
*667 _056_
*668 _057_
*669 _058_
*670 _059_
*671 _060_
*672 _061_
*673 _062_
*674 _063_
*675 _064_
*676 _065_
*677 _066_
*678 _067_
*679 _068_
*680 _069_
*681 _070_
*682 _071_
*683 _072_
*684 _073_
*685 _074_
*686 _075_
*687 _076_
*688 _077_
*689 _078_
*690 _079_
*691 _080_
*692 _081_
*693 _082_
*694 _083_
*695 _084_
*696 _085_
*697 _086_
*698 _087_
*699 _088_
*700 _089_
*701 _090_
*702 _091_
*703 _092_
*704 _093_
*705 _094_
*706 _095_
*707 _096_
*708 _097_
*709 _098_
*710 _099_
*711 _100_
*712 _101_
*713 _102_
*714 _103_
*715 _104_
*716 _105_
*717 _106_
*718 _107_
*719 _108_
*720 _109_
*721 _110_
*722 _111_
*723 _112_
*724 _113_
*725 _114_
*726 _115_
*727 _116_
*728 _117_
*729 _118_
*730 _119_
*731 _120_
*732 _121_
*733 _122_
*734 _123_
*735 _124_
*736 _125_
*737 _126_
*738 _127_
*739 _128_
*740 _129_
*741 _130_
*742 _131_
*743 _132_
*744 _133_
*745 _134_
*746 _135_
*747 _136_
*748 _137_
*749 _138_
*750 _139_
*751 _140_
*752 _141_
*753 _142_
*754 _143_
*755 _144_
*756 _145_
*757 _146_
*758 _147_
*759 _148_
*760 _149_
*761 _150_
*762 _151_
*763 _152_
*764 _153_
*765 _154_
*766 _155_
*767 _156_
*768 _157_
*769 _158_
*770 _159_
*771 _160_
*772 _161_
*773 _162_
*774 _163_
*775 _164_
*776 _165_
*777 _166_
*778 clknet_0_wb_clk_i
*779 clknet_2_0__leaf_wb_clk_i
*780 clknet_2_1__leaf_wb_clk_i
*781 clknet_2_2__leaf_wb_clk_i
*782 clknet_2_3__leaf_wb_clk_i
*783 net1
*784 net10
*785 net11
*786 net12
*787 net13
*788 net14
*789 net15
*790 net16
*791 net17
*792 net18
*793 net19
*794 net2
*795 net20
*796 net21
*797 net22
*798 net23
*799 net24
*800 net25
*801 net26
*802 net27
*803 net28
*804 net29
*805 net3
*806 net30
*807 net31
*808 net32
*809 net33
*810 net34
*811 net35
*812 net36
*813 net37
*814 net38
*815 net39
*816 net4
*817 net40
*818 net41
*819 net42
*820 net43
*821 net44
*822 net45
*823 net46
*824 net47
*825 net5
*826 net6
*827 net7
*828 net8
*829 net9
*830 rlbp_inst0\.d\[0\]
*831 rlbp_inst0\.d\[1\]
*832 rlbp_inst0\.d\[2\]
*833 rlbp_inst0\.d\[3\]
*834 rlbp_inst0\.data_in
*835 rlbp_inst0\.data_net\[2\]
*836 rlbp_inst0\.data_sel\[0\]
*837 rlbp_inst0\.data_sel\[1\]
*838 rlbp_inst0\.gpio_start
*839 rlbp_inst0\.inst1\.ce_d1
*840 rlbp_inst0\.inst1\.ce_d2
*841 rlbp_inst0\.inst1\.ce_d3
*842 rlbp_inst0\.inst1\.logic_analyzer_start
*843 rlbp_inst0\.inst1\.next_state_rlbp\[0\]
*844 rlbp_inst0\.inst1\.next_state_rlbp\[1\]
*845 rlbp_inst0\.inst1\.next_state_rlbp\[2\]
*846 rlbp_inst0\.inst1\.next_state_rlbp\[3\]
*847 rlbp_inst0\.inst1\.next_state_rlbp\[4\]
*848 rlbp_inst0\.inst1\.state_rlbp\[0\]
*849 rlbp_inst0\.inst1\.state_rlbp\[1\]
*850 rlbp_inst0\.inst1\.state_rlbp\[2\]
*851 rlbp_inst0\.inst1\.state_rlbp\[3\]
*852 rlbp_inst0\.inst1\.state_rlbp\[4\]
*853 ANTENNA__167__B
*854 ANTENNA__167__C_N
*855 ANTENNA__168__A0
*856 ANTENNA__168__A1
*857 ANTENNA__170__A1
*858 ANTENNA__172__B
*859 ANTENNA__173__A0
*860 ANTENNA__173__A1
*861 ANTENNA__175__A0
*862 ANTENNA__175__A1
*863 ANTENNA__177__A
*864 ANTENNA__178__B
*865 ANTENNA__179__A1
*866 ANTENNA__179__A3
*867 ANTENNA__181__A0
*868 ANTENNA__181__A1
*869 ANTENNA__181__S
*870 ANTENNA__183__A0
*871 ANTENNA__183__A1
*872 ANTENNA__183__S
*873 ANTENNA__185__A_N
*874 ANTENNA__185__B
*875 ANTENNA__185__C
*876 ANTENNA__186__A0
*877 ANTENNA__186__S
*878 ANTENNA__188__A0
*879 ANTENNA__188__A1
*880 ANTENNA__190__B
*881 ANTENNA__234__A
*882 ANTENNA__234__B
*883 ANTENNA__234__C
*884 ANTENNA__243__A0
*885 ANTENNA__246__A0
*886 ANTENNA__249__A0
*887 ANTENNA__260__A0
*888 ANTENNA__284__A1
*889 ANTENNA__287__A1
*890 ANTENNA__291__A1
*891 ANTENNA__301__A1
*892 ANTENNA__317__A0
*893 ANTENNA_clkbuf_0_wb_clk_i_A
*894 ANTENNA_input10_A
*895 ANTENNA_input11_A
*896 ANTENNA_input12_A
*897 ANTENNA_input13_A
*898 ANTENNA_input14_A
*899 ANTENNA_input15_A
*900 ANTENNA_input16_A
*901 ANTENNA_input17_A
*902 ANTENNA_input18_A
*903 ANTENNA_input19_A
*904 ANTENNA_input1_A
*905 ANTENNA_input20_A
*906 ANTENNA_input21_A
*907 ANTENNA_input2_A
*908 ANTENNA_input3_A
*909 ANTENNA_input4_A
*910 ANTENNA_input5_A
*911 ANTENNA_input6_A
*912 ANTENNA_input7_A
*913 ANTENNA_input8_A
*914 ANTENNA_input9_A
*915 ANTENNA_output23_A
*916 ANTENNA_output24_A
*917 ANTENNA_output25_A
*918 ANTENNA_output26_A
*919 ANTENNA_output27_A
*920 ANTENNA_output28_A
*921 ANTENNA_output29_A
*922 ANTENNA_output30_A
*923 ANTENNA_output31_A
*924 ANTENNA_output32_A
*925 ANTENNA_output33_A
*926 ANTENNA_output34_A
*927 ANTENNA_output36_A
*928 FILLER_0_101
*929 FILLER_0_108
*930 FILLER_0_11
*931 FILLER_0_113
*932 FILLER_0_120
*933 FILLER_0_128
*934 FILLER_0_136
*935 FILLER_0_141
*936 FILLER_0_158
*937 FILLER_0_164
*938 FILLER_0_17
*939 FILLER_0_173
*940 FILLER_0_181
*941 FILLER_0_189
*942 FILLER_0_195
*943 FILLER_0_199
*944 FILLER_0_206
*945 FILLER_0_213
*946 FILLER_0_220
*947 FILLER_0_227
*948 FILLER_0_234
*949 FILLER_0_24
*950 FILLER_0_241
*951 FILLER_0_248
*952 FILLER_0_255
*953 FILLER_0_262
*954 FILLER_0_269
*955 FILLER_0_276
*956 FILLER_0_283
*957 FILLER_0_290
*958 FILLER_0_297
*959 FILLER_0_304
*960 FILLER_0_309
*961 FILLER_0_31
*962 FILLER_0_318
*963 FILLER_0_325
*964 FILLER_0_332
*965 FILLER_0_337
*966 FILLER_0_346
*967 FILLER_0_353
*968 FILLER_0_360
*969 FILLER_0_365
*970 FILLER_0_369
*971 FILLER_0_376
*972 FILLER_0_38
*973 FILLER_0_383
*974 FILLER_0_391
*975 FILLER_0_396
*976 FILLER_0_403
*977 FILLER_0_410
*978 FILLER_0_416
*979 FILLER_0_42
*980 FILLER_0_421
*981 FILLER_0_426
*982 FILLER_0_434
*983 FILLER_0_442
*984 FILLER_0_45
*985 FILLER_0_453
*986 FILLER_0_461
*987 FILLER_0_469
*988 FILLER_0_475
*989 FILLER_0_481
*990 FILLER_0_488
*991 FILLER_0_495
*992 FILLER_0_5
*993 FILLER_0_503
*994 FILLER_0_508
*995 FILLER_0_515
*996 FILLER_0_52
*997 FILLER_0_522
*998 FILLER_0_530
*999 FILLER_0_536
*1000 FILLER_0_543
*1001 FILLER_0_550
*1002 FILLER_0_558
*1003 FILLER_0_564
*1004 FILLER_0_57
*1005 FILLER_0_571
*1006 FILLER_0_578
*1007 FILLER_0_586
*1008 FILLER_0_592
*1009 FILLER_0_599
*1010 FILLER_0_606
*1011 FILLER_0_614
*1012 FILLER_0_620
*1013 FILLER_0_627
*1014 FILLER_0_634
*1015 FILLER_0_642
*1016 FILLER_0_645
*1017 FILLER_0_657
*1018 FILLER_0_66
*1019 FILLER_0_669
*1020 FILLER_0_673
*1021 FILLER_0_685
*1022 FILLER_0_697
*1023 FILLER_0_701
*1024 FILLER_0_713
*1025 FILLER_0_725
*1026 FILLER_0_729
*1027 FILLER_0_73
*1028 FILLER_0_80
*1029 FILLER_0_90
*1030 FILLER_100_109
*1031 FILLER_100_121
*1032 FILLER_100_133
*1033 FILLER_100_139
*1034 FILLER_100_144
*1035 FILLER_100_15
*1036 FILLER_100_156
*1037 FILLER_100_168
*1038 FILLER_100_180
*1039 FILLER_100_192
*1040 FILLER_100_197
*1041 FILLER_100_209
*1042 FILLER_100_221
*1043 FILLER_100_233
*1044 FILLER_100_245
*1045 FILLER_100_251
*1046 FILLER_100_253
*1047 FILLER_100_265
*1048 FILLER_100_27
*1049 FILLER_100_277
*1050 FILLER_100_289
*1051 FILLER_100_29
*1052 FILLER_100_3
*1053 FILLER_100_301
*1054 FILLER_100_307
*1055 FILLER_100_309
*1056 FILLER_100_321
*1057 FILLER_100_333
*1058 FILLER_100_345
*1059 FILLER_100_357
*1060 FILLER_100_363
*1061 FILLER_100_365
*1062 FILLER_100_377
*1063 FILLER_100_389
*1064 FILLER_100_401
*1065 FILLER_100_41
*1066 FILLER_100_413
*1067 FILLER_100_419
*1068 FILLER_100_421
*1069 FILLER_100_433
*1070 FILLER_100_445
*1071 FILLER_100_457
*1072 FILLER_100_469
*1073 FILLER_100_475
*1074 FILLER_100_477
*1075 FILLER_100_489
*1076 FILLER_100_501
*1077 FILLER_100_513
*1078 FILLER_100_525
*1079 FILLER_100_53
*1080 FILLER_100_531
*1081 FILLER_100_533
*1082 FILLER_100_545
*1083 FILLER_100_557
*1084 FILLER_100_569
*1085 FILLER_100_577
*1086 FILLER_100_582
*1087 FILLER_100_589
*1088 FILLER_100_601
*1089 FILLER_100_613
*1090 FILLER_100_625
*1091 FILLER_100_637
*1092 FILLER_100_643
*1093 FILLER_100_645
*1094 FILLER_100_65
*1095 FILLER_100_657
*1096 FILLER_100_669
*1097 FILLER_100_681
*1098 FILLER_100_693
*1099 FILLER_100_699
*1100 FILLER_100_701
*1101 FILLER_100_713
*1102 FILLER_100_725
*1103 FILLER_100_77
*1104 FILLER_100_83
*1105 FILLER_100_85
*1106 FILLER_100_97
*1107 FILLER_101_104
*1108 FILLER_101_108
*1109 FILLER_101_116
*1110 FILLER_101_125
*1111 FILLER_101_132
*1112 FILLER_101_141
*1113 FILLER_101_15
*1114 FILLER_101_150
*1115 FILLER_101_157
*1116 FILLER_101_164
*1117 FILLER_101_169
*1118 FILLER_101_178
*1119 FILLER_101_185
*1120 FILLER_101_192
*1121 FILLER_101_197
*1122 FILLER_101_204
*1123 FILLER_101_213
*1124 FILLER_101_220
*1125 FILLER_101_225
*1126 FILLER_101_229
*1127 FILLER_101_233
*1128 FILLER_101_240
*1129 FILLER_101_244
*1130 FILLER_101_248
*1131 FILLER_101_253
*1132 FILLER_101_258
*1133 FILLER_101_269
*1134 FILLER_101_27
*1135 FILLER_101_276
*1136 FILLER_101_281
*1137 FILLER_101_287
*1138 FILLER_101_29
*1139 FILLER_101_294
*1140 FILLER_101_3
*1141 FILLER_101_300
*1142 FILLER_101_304
*1143 FILLER_101_312
*1144 FILLER_101_323
*1145 FILLER_101_330
*1146 FILLER_101_337
*1147 FILLER_101_341
*1148 FILLER_101_348
*1149 FILLER_101_35
*1150 FILLER_101_356
*1151 FILLER_101_360
*1152 FILLER_101_368
*1153 FILLER_101_377
*1154 FILLER_101_384
*1155 FILLER_101_396
*1156 FILLER_101_403
*1157 FILLER_101_414
*1158 FILLER_101_42
*1159 FILLER_101_424
*1160 FILLER_101_428
*1161 FILLER_101_432
*1162 FILLER_101_439
*1163 FILLER_101_447
*1164 FILLER_101_452
*1165 FILLER_101_459
*1166 FILLER_101_468
*1167 FILLER_101_48
*1168 FILLER_101_480
*1169 FILLER_101_487
*1170 FILLER_101_494
*1171 FILLER_101_502
*1172 FILLER_101_508
*1173 FILLER_101_515
*1174 FILLER_101_52
*1175 FILLER_101_522
*1176 FILLER_101_530
*1177 FILLER_101_536
*1178 FILLER_101_543
*1179 FILLER_101_550
*1180 FILLER_101_558
*1181 FILLER_101_564
*1182 FILLER_101_571
*1183 FILLER_101_578
*1184 FILLER_101_586
*1185 FILLER_101_589
*1186 FILLER_101_594
*1187 FILLER_101_60
*1188 FILLER_101_601
*1189 FILLER_101_612
*1190 FILLER_101_620
*1191 FILLER_101_626
*1192 FILLER_101_630
*1193 FILLER_101_637
*1194 FILLER_101_643
*1195 FILLER_101_648
*1196 FILLER_101_655
*1197 FILLER_101_666
*1198 FILLER_101_676
*1199 FILLER_101_680
*1200 FILLER_101_684
*1201 FILLER_101_691
*1202 FILLER_101_699
*1203 FILLER_101_704
*1204 FILLER_101_71
*1205 FILLER_101_711
*1206 FILLER_101_718
*1207 FILLER_101_726
*1208 FILLER_101_729
*1209 FILLER_101_78
*1210 FILLER_101_85
*1211 FILLER_101_89
*1212 FILLER_101_96
*1213 FILLER_10_100
*1214 FILLER_10_121
*1215 FILLER_10_133
*1216 FILLER_10_139
*1217 FILLER_10_141
*1218 FILLER_10_15
*1219 FILLER_10_153
*1220 FILLER_10_157
*1221 FILLER_10_178
*1222 FILLER_10_190
*1223 FILLER_10_197
*1224 FILLER_10_203
*1225 FILLER_10_210
*1226 FILLER_10_218
*1227 FILLER_10_224
*1228 FILLER_10_230
*1229 FILLER_10_248
*1230 FILLER_10_253
*1231 FILLER_10_266
*1232 FILLER_10_27
*1233 FILLER_10_277
*1234 FILLER_10_283
*1235 FILLER_10_287
*1236 FILLER_10_29
*1237 FILLER_10_299
*1238 FILLER_10_3
*1239 FILLER_10_307
*1240 FILLER_10_309
*1241 FILLER_10_321
*1242 FILLER_10_333
*1243 FILLER_10_345
*1244 FILLER_10_357
*1245 FILLER_10_363
*1246 FILLER_10_365
*1247 FILLER_10_37
*1248 FILLER_10_377
*1249 FILLER_10_389
*1250 FILLER_10_401
*1251 FILLER_10_413
*1252 FILLER_10_419
*1253 FILLER_10_421
*1254 FILLER_10_433
*1255 FILLER_10_445
*1256 FILLER_10_45
*1257 FILLER_10_457
*1258 FILLER_10_469
*1259 FILLER_10_475
*1260 FILLER_10_477
*1261 FILLER_10_489
*1262 FILLER_10_501
*1263 FILLER_10_513
*1264 FILLER_10_525
*1265 FILLER_10_531
*1266 FILLER_10_533
*1267 FILLER_10_545
*1268 FILLER_10_55
*1269 FILLER_10_557
*1270 FILLER_10_569
*1271 FILLER_10_581
*1272 FILLER_10_587
*1273 FILLER_10_589
*1274 FILLER_10_601
*1275 FILLER_10_613
*1276 FILLER_10_625
*1277 FILLER_10_637
*1278 FILLER_10_643
*1279 FILLER_10_645
*1280 FILLER_10_657
*1281 FILLER_10_669
*1282 FILLER_10_681
*1283 FILLER_10_693
*1284 FILLER_10_699
*1285 FILLER_10_701
*1286 FILLER_10_713
*1287 FILLER_10_72
*1288 FILLER_10_725
*1289 FILLER_10_88
*1290 FILLER_10_94
*1291 FILLER_11_102
*1292 FILLER_11_110
*1293 FILLER_11_113
*1294 FILLER_11_125
*1295 FILLER_11_144
*1296 FILLER_11_15
*1297 FILLER_11_164
*1298 FILLER_11_169
*1299 FILLER_11_177
*1300 FILLER_11_198
*1301 FILLER_11_206
*1302 FILLER_11_211
*1303 FILLER_11_217
*1304 FILLER_11_220
*1305 FILLER_11_232
*1306 FILLER_11_238
*1307 FILLER_11_250
*1308 FILLER_11_262
*1309 FILLER_11_266
*1310 FILLER_11_278
*1311 FILLER_11_281
*1312 FILLER_11_287
*1313 FILLER_11_3
*1314 FILLER_11_30
*1315 FILLER_11_300
*1316 FILLER_11_312
*1317 FILLER_11_324
*1318 FILLER_11_337
*1319 FILLER_11_349
*1320 FILLER_11_361
*1321 FILLER_11_37
*1322 FILLER_11_373
*1323 FILLER_11_385
*1324 FILLER_11_391
*1325 FILLER_11_393
*1326 FILLER_11_405
*1327 FILLER_11_417
*1328 FILLER_11_429
*1329 FILLER_11_441
*1330 FILLER_11_447
*1331 FILLER_11_449
*1332 FILLER_11_45
*1333 FILLER_11_461
*1334 FILLER_11_473
*1335 FILLER_11_485
*1336 FILLER_11_497
*1337 FILLER_11_503
*1338 FILLER_11_505
*1339 FILLER_11_517
*1340 FILLER_11_529
*1341 FILLER_11_53
*1342 FILLER_11_541
*1343 FILLER_11_553
*1344 FILLER_11_559
*1345 FILLER_11_561
*1346 FILLER_11_573
*1347 FILLER_11_585
*1348 FILLER_11_597
*1349 FILLER_11_609
*1350 FILLER_11_615
*1351 FILLER_11_617
*1352 FILLER_11_62
*1353 FILLER_11_629
*1354 FILLER_11_641
*1355 FILLER_11_653
*1356 FILLER_11_665
*1357 FILLER_11_671
*1358 FILLER_11_673
*1359 FILLER_11_685
*1360 FILLER_11_697
*1361 FILLER_11_709
*1362 FILLER_11_721
*1363 FILLER_11_727
*1364 FILLER_11_729
*1365 FILLER_11_74
*1366 FILLER_11_82
*1367 FILLER_11_95
*1368 FILLER_12_109
*1369 FILLER_12_129
*1370 FILLER_12_137
*1371 FILLER_12_141
*1372 FILLER_12_149
*1373 FILLER_12_15
*1374 FILLER_12_168
*1375 FILLER_12_192
*1376 FILLER_12_197
*1377 FILLER_12_209
*1378 FILLER_12_214
*1379 FILLER_12_228
*1380 FILLER_12_236
*1381 FILLER_12_243
*1382 FILLER_12_251
*1383 FILLER_12_253
*1384 FILLER_12_259
*1385 FILLER_12_267
*1386 FILLER_12_27
*1387 FILLER_12_276
*1388 FILLER_12_285
*1389 FILLER_12_29
*1390 FILLER_12_297
*1391 FILLER_12_3
*1392 FILLER_12_305
*1393 FILLER_12_309
*1394 FILLER_12_321
*1395 FILLER_12_333
*1396 FILLER_12_345
*1397 FILLER_12_357
*1398 FILLER_12_363
*1399 FILLER_12_365
*1400 FILLER_12_37
*1401 FILLER_12_377
*1402 FILLER_12_389
*1403 FILLER_12_401
*1404 FILLER_12_413
*1405 FILLER_12_419
*1406 FILLER_12_421
*1407 FILLER_12_433
*1408 FILLER_12_445
*1409 FILLER_12_457
*1410 FILLER_12_469
*1411 FILLER_12_475
*1412 FILLER_12_477
*1413 FILLER_12_48
*1414 FILLER_12_489
*1415 FILLER_12_501
*1416 FILLER_12_513
*1417 FILLER_12_525
*1418 FILLER_12_531
*1419 FILLER_12_533
*1420 FILLER_12_545
*1421 FILLER_12_557
*1422 FILLER_12_56
*1423 FILLER_12_569
*1424 FILLER_12_581
*1425 FILLER_12_587
*1426 FILLER_12_589
*1427 FILLER_12_601
*1428 FILLER_12_613
*1429 FILLER_12_62
*1430 FILLER_12_625
*1431 FILLER_12_637
*1432 FILLER_12_643
*1433 FILLER_12_645
*1434 FILLER_12_657
*1435 FILLER_12_669
*1436 FILLER_12_681
*1437 FILLER_12_693
*1438 FILLER_12_699
*1439 FILLER_12_701
*1440 FILLER_12_713
*1441 FILLER_12_72
*1442 FILLER_12_725
*1443 FILLER_12_85
*1444 FILLER_13_101
*1445 FILLER_13_109
*1446 FILLER_13_113
*1447 FILLER_13_125
*1448 FILLER_13_143
*1449 FILLER_13_15
*1450 FILLER_13_155
*1451 FILLER_13_167
*1452 FILLER_13_169
*1453 FILLER_13_177
*1454 FILLER_13_198
*1455 FILLER_13_210
*1456 FILLER_13_218
*1457 FILLER_13_225
*1458 FILLER_13_234
*1459 FILLER_13_238
*1460 FILLER_13_246
*1461 FILLER_13_260
*1462 FILLER_13_27
*1463 FILLER_13_273
*1464 FILLER_13_279
*1465 FILLER_13_281
*1466 FILLER_13_293
*1467 FILLER_13_3
*1468 FILLER_13_305
*1469 FILLER_13_317
*1470 FILLER_13_329
*1471 FILLER_13_335
*1472 FILLER_13_337
*1473 FILLER_13_349
*1474 FILLER_13_35
*1475 FILLER_13_361
*1476 FILLER_13_373
*1477 FILLER_13_385
*1478 FILLER_13_39
*1479 FILLER_13_391
*1480 FILLER_13_393
*1481 FILLER_13_405
*1482 FILLER_13_417
*1483 FILLER_13_429
*1484 FILLER_13_441
*1485 FILLER_13_447
*1486 FILLER_13_449
*1487 FILLER_13_461
*1488 FILLER_13_473
*1489 FILLER_13_485
*1490 FILLER_13_497
*1491 FILLER_13_503
*1492 FILLER_13_505
*1493 FILLER_13_517
*1494 FILLER_13_52
*1495 FILLER_13_529
*1496 FILLER_13_541
*1497 FILLER_13_553
*1498 FILLER_13_559
*1499 FILLER_13_561
*1500 FILLER_13_57
*1501 FILLER_13_573
*1502 FILLER_13_585
*1503 FILLER_13_597
*1504 FILLER_13_609
*1505 FILLER_13_615
*1506 FILLER_13_617
*1507 FILLER_13_629
*1508 FILLER_13_641
*1509 FILLER_13_653
*1510 FILLER_13_66
*1511 FILLER_13_665
*1512 FILLER_13_671
*1513 FILLER_13_673
*1514 FILLER_13_685
*1515 FILLER_13_697
*1516 FILLER_13_709
*1517 FILLER_13_721
*1518 FILLER_13_727
*1519 FILLER_13_729
*1520 FILLER_13_73
*1521 FILLER_13_79
*1522 FILLER_13_89
*1523 FILLER_14_116
*1524 FILLER_14_128
*1525 FILLER_14_141
*1526 FILLER_14_149
*1527 FILLER_14_15
*1528 FILLER_14_170
*1529 FILLER_14_182
*1530 FILLER_14_194
*1531 FILLER_14_197
*1532 FILLER_14_209
*1533 FILLER_14_227
*1534 FILLER_14_239
*1535 FILLER_14_243
*1536 FILLER_14_248
*1537 FILLER_14_253
*1538 FILLER_14_262
*1539 FILLER_14_268
*1540 FILLER_14_27
*1541 FILLER_14_276
*1542 FILLER_14_288
*1543 FILLER_14_29
*1544 FILLER_14_3
*1545 FILLER_14_300
*1546 FILLER_14_309
*1547 FILLER_14_321
*1548 FILLER_14_333
*1549 FILLER_14_345
*1550 FILLER_14_357
*1551 FILLER_14_363
*1552 FILLER_14_365
*1553 FILLER_14_377
*1554 FILLER_14_389
*1555 FILLER_14_401
*1556 FILLER_14_41
*1557 FILLER_14_413
*1558 FILLER_14_419
*1559 FILLER_14_421
*1560 FILLER_14_433
*1561 FILLER_14_445
*1562 FILLER_14_457
*1563 FILLER_14_469
*1564 FILLER_14_475
*1565 FILLER_14_477
*1566 FILLER_14_489
*1567 FILLER_14_501
*1568 FILLER_14_513
*1569 FILLER_14_52
*1570 FILLER_14_525
*1571 FILLER_14_531
*1572 FILLER_14_533
*1573 FILLER_14_545
*1574 FILLER_14_557
*1575 FILLER_14_569
*1576 FILLER_14_581
*1577 FILLER_14_587
*1578 FILLER_14_589
*1579 FILLER_14_59
*1580 FILLER_14_601
*1581 FILLER_14_613
*1582 FILLER_14_625
*1583 FILLER_14_637
*1584 FILLER_14_643
*1585 FILLER_14_645
*1586 FILLER_14_657
*1587 FILLER_14_669
*1588 FILLER_14_681
*1589 FILLER_14_693
*1590 FILLER_14_699
*1591 FILLER_14_701
*1592 FILLER_14_713
*1593 FILLER_14_72
*1594 FILLER_14_725
*1595 FILLER_14_88
*1596 FILLER_15_107
*1597 FILLER_15_111
*1598 FILLER_15_113
*1599 FILLER_15_121
*1600 FILLER_15_138
*1601 FILLER_15_142
*1602 FILLER_15_15
*1603 FILLER_15_159
*1604 FILLER_15_167
*1605 FILLER_15_169
*1606 FILLER_15_177
*1607 FILLER_15_199
*1608 FILLER_15_211
*1609 FILLER_15_218
*1610 FILLER_15_235
*1611 FILLER_15_253
*1612 FILLER_15_259
*1613 FILLER_15_27
*1614 FILLER_15_270
*1615 FILLER_15_278
*1616 FILLER_15_281
*1617 FILLER_15_293
*1618 FILLER_15_3
*1619 FILLER_15_305
*1620 FILLER_15_317
*1621 FILLER_15_329
*1622 FILLER_15_335
*1623 FILLER_15_337
*1624 FILLER_15_349
*1625 FILLER_15_361
*1626 FILLER_15_373
*1627 FILLER_15_385
*1628 FILLER_15_39
*1629 FILLER_15_391
*1630 FILLER_15_393
*1631 FILLER_15_405
*1632 FILLER_15_417
*1633 FILLER_15_429
*1634 FILLER_15_441
*1635 FILLER_15_447
*1636 FILLER_15_449
*1637 FILLER_15_461
*1638 FILLER_15_473
*1639 FILLER_15_485
*1640 FILLER_15_497
*1641 FILLER_15_503
*1642 FILLER_15_505
*1643 FILLER_15_51
*1644 FILLER_15_517
*1645 FILLER_15_529
*1646 FILLER_15_541
*1647 FILLER_15_55
*1648 FILLER_15_553
*1649 FILLER_15_559
*1650 FILLER_15_561
*1651 FILLER_15_57
*1652 FILLER_15_573
*1653 FILLER_15_585
*1654 FILLER_15_597
*1655 FILLER_15_609
*1656 FILLER_15_615
*1657 FILLER_15_617
*1658 FILLER_15_629
*1659 FILLER_15_641
*1660 FILLER_15_653
*1661 FILLER_15_665
*1662 FILLER_15_671
*1663 FILLER_15_673
*1664 FILLER_15_685
*1665 FILLER_15_69
*1666 FILLER_15_697
*1667 FILLER_15_709
*1668 FILLER_15_721
*1669 FILLER_15_727
*1670 FILLER_15_729
*1671 FILLER_15_75
*1672 FILLER_15_88
*1673 FILLER_15_95
*1674 FILLER_16_115
*1675 FILLER_16_127
*1676 FILLER_16_139
*1677 FILLER_16_141
*1678 FILLER_16_15
*1679 FILLER_16_153
*1680 FILLER_16_165
*1681 FILLER_16_177
*1682 FILLER_16_189
*1683 FILLER_16_195
*1684 FILLER_16_197
*1685 FILLER_16_209
*1686 FILLER_16_221
*1687 FILLER_16_231
*1688 FILLER_16_245