*SPEF "ieee 1481-1999"
*DESIGN "rlbp_macro"
*DATE "11:11:11 Fri 11 11, 1111"
*VENDOR "OpenRCX"
*PROGRAM "Parallel Extraction"
*VERSION "1.0"
*DESIGN_FLOW "NAME_SCOPE LOCAL" "PIN_CAP NONE"
*DIVIDER /
*DELIMITER :
*BUS_DELIMITER []
*T_UNIT 1 NS
*C_UNIT 1 PF
*R_UNIT 1 OHM
*L_UNIT 1 HENRY

*NAME_MAP
*1 io_in[0]
*2 io_in[10]
*3 io_in[11]
*4 io_in[12]
*5 io_in[13]
*6 io_in[14]
*7 io_in[15]
*8 io_in[16]
*9 io_in[17]
*10 io_in[18]
*11 io_in[19]
*12 io_in[1]
*13 io_in[20]
*14 io_in[21]
*15 io_in[22]
*16 io_in[23]
*17 io_in[24]
*18 io_in[25]
*19 io_in[26]
*20 io_in[27]
*21 io_in[28]
*22 io_in[29]
*23 io_in[2]
*24 io_in[30]
*25 io_in[31]
*26 io_in[32]
*27 io_in[33]
*28 io_in[34]
*29 io_in[35]
*30 io_in[36]
*31 io_in[37]
*32 io_in[3]
*33 io_in[4]
*34 io_in[5]
*35 io_in[6]
*36 io_in[7]
*37 io_in[8]
*38 io_in[9]
*39 net37
*40 net47
*41 net48
*42 net49
*43 net50
*44 net51
*45 net52
*46 net53
*47 net54
*48 net55
*49 net56
*50 net38
*51 net57
*52 net58
*53 net59
*54 net60
*55 net61
*56 net62
*57 net63
*58 net64
*59 net65
*60 net66
*61 net39
*62 net67
*63 net68
*64 net69
*65 net70
*66 net71
*67 net72
*68 net73
*69 net74
*70 net40
*71 net41
*72 net42
*73 net43
*74 net44
*75 net45
*76 net46
*77 net75
*78 net85
*79 net86
*80 net87
*81 net88
*82 net89
*83 net90
*84 net91
*85 net92
*86 net93
*87 net94
*88 net76
*89 net95
*90 net96
*91 net97
*92 net98
*93 net99
*94 net100
*95 net101
*96 net102
*97 net103
*98 net104
*99 net77
*100 net105
*101 net106
*102 net107
*103 net108
*104 net109
*105 net110
*106 net111
*107 net112
*108 net78
*109 net79
*110 net80
*111 net81
*112 net82
*113 net83
*114 net84
*115 net113
*116 net114
*117 net115
*118 la_data_in[0]
*119 la_data_in[100]
*120 la_data_in[101]
*121 la_data_in[102]
*122 la_data_in[103]
*123 la_data_in[104]
*124 la_data_in[105]
*125 la_data_in[106]
*126 la_data_in[107]
*127 la_data_in[108]
*128 la_data_in[109]
*129 la_data_in[10]
*130 la_data_in[110]
*131 la_data_in[111]
*132 la_data_in[112]
*133 la_data_in[113]
*134 la_data_in[114]
*135 la_data_in[115]
*136 la_data_in[116]
*137 la_data_in[117]
*138 la_data_in[118]
*139 la_data_in[119]
*140 la_data_in[11]
*141 la_data_in[120]
*142 la_data_in[121]
*143 la_data_in[122]
*144 la_data_in[123]
*145 la_data_in[124]
*146 la_data_in[125]
*147 la_data_in[126]
*148 la_data_in[127]
*149 la_data_in[12]
*150 la_data_in[13]
*151 la_data_in[14]
*152 la_data_in[15]
*153 la_data_in[16]
*154 la_data_in[17]
*155 la_data_in[18]
*156 la_data_in[19]
*157 la_data_in[1]
*158 la_data_in[20]
*159 la_data_in[21]
*160 la_data_in[22]
*161 la_data_in[23]
*162 la_data_in[24]
*163 la_data_in[25]
*164 la_data_in[26]
*165 la_data_in[27]
*166 la_data_in[28]
*167 la_data_in[29]
*168 la_data_in[2]
*169 la_data_in[30]
*170 la_data_in[31]
*171 la_data_in[32]
*172 la_data_in[33]
*173 la_data_in[34]
*174 la_data_in[35]
*175 la_data_in[36]
*176 la_data_in[37]
*177 la_data_in[38]
*178 la_data_in[39]
*179 la_data_in[3]
*180 la_data_in[40]
*181 la_data_in[41]
*182 la_data_in[42]
*183 la_data_in[43]
*184 la_data_in[44]
*185 la_data_in[45]
*186 la_data_in[46]
*187 la_data_in[47]
*188 la_data_in[48]
*189 la_data_in[49]
*190 la_data_in[4]
*191 la_data_in[50]
*192 la_data_in[51]
*193 la_data_in[52]
*194 la_data_in[53]
*195 la_data_in[54]
*196 la_data_in[55]
*197 la_data_in[56]
*198 la_data_in[57]
*199 la_data_in[58]
*200 la_data_in[59]
*201 la_data_in[5]
*202 la_data_in[60]
*203 la_data_in[61]
*204 la_data_in[62]
*205 la_data_in[63]
*206 la_data_in[64]
*207 la_data_in[65]
*208 la_data_in[66]
*209 la_data_in[67]
*210 la_data_in[68]
*211 la_data_in[69]
*212 la_data_in[6]
*213 la_data_in[70]
*214 la_data_in[71]
*215 la_data_in[72]
*216 la_data_in[73]
*217 la_data_in[74]
*218 la_data_in[75]
*219 la_data_in[76]
*220 la_data_in[77]
*221 la_data_in[78]
*222 la_data_in[79]
*223 la_data_in[7]
*224 la_data_in[80]
*225 la_data_in[81]
*226 la_data_in[82]
*227 la_data_in[83]
*228 la_data_in[84]
*229 la_data_in[85]
*230 la_data_in[86]
*231 la_data_in[87]
*232 la_data_in[88]
*233 la_data_in[89]
*234 la_data_in[8]
*235 la_data_in[90]
*236 la_data_in[91]
*237 la_data_in[92]
*238 la_data_in[93]
*239 la_data_in[94]
*240 la_data_in[95]
*241 la_data_in[96]
*242 la_data_in[97]
*243 la_data_in[98]
*244 la_data_in[99]
*245 la_data_in[9]
*246 net116
*247 net203
*248 net204
*249 net205
*250 net206
*251 net207
*252 net208
*253 net209
*254 net210
*255 net211
*256 net212
*257 net126
*258 net213
*259 net214
*260 net215
*261 net216
*262 net217
*263 net218
*264 net219
*265 net220
*266 net221
*267 net222
*268 net127
*269 net223
*270 net224
*271 net225
*272 net226
*273 net227
*274 net228
*275 net229
*276 net230
*277 net128
*278 net129
*279 net130
*280 net131
*281 net132
*282 net133
*283 net134
*284 net135
*285 net117
*286 net136
*287 net137
*288 la_data_out[22]
*289 la_data_out[23]
*290 la_data_out[24]
*291 la_data_out[25]
*292 la_data_out[26]
*293 la_data_out[27]
*294 la_data_out[28]
*295 la_data_out[29]
*296 net118
*297 la_data_out[30]
*298 la_data_out[31]
*299 la_data_out[32]
*300 la_data_out[33]
*301 la_data_out[34]
*302 net138
*303 net139
*304 net140
*305 net141
*306 net142
*307 net119
*308 net143
*309 net144
*310 net145
*311 net146
*312 net147
*313 net148
*314 net149
*315 net150
*316 net151
*317 net152
*318 net120
*319 net153
*320 net154
*321 net155
*322 net156
*323 net157
*324 net158
*325 net159
*326 net160
*327 net161
*328 net162
*329 net121
*330 net163
*331 net164
*332 net165
*333 net166
*334 net167
*335 net168
*336 net169
*337 net170
*338 net171
*339 net172
*340 net122
*341 net173
*342 net174
*343 net175
*344 net176
*345 net177
*346 net178
*347 net179
*348 net180
*349 net181
*350 net182
*351 net123
*352 net183
*353 net184
*354 net185
*355 net186
*356 net187
*357 net188
*358 net189
*359 net190
*360 net191
*361 net192
*362 net124
*363 net193
*364 net194
*365 net195
*366 net196
*367 net197
*368 net198
*369 net199
*370 net200
*371 net201
*372 net202
*373 net125
*374 la_oenb[0]
*375 la_oenb[100]
*376 la_oenb[101]
*377 la_oenb[102]
*378 la_oenb[103]
*379 la_oenb[104]
*380 la_oenb[105]
*381 la_oenb[106]
*382 la_oenb[107]
*383 la_oenb[108]
*384 la_oenb[109]
*385 la_oenb[10]
*386 la_oenb[110]
*387 la_oenb[111]
*388 la_oenb[112]
*389 la_oenb[113]
*390 la_oenb[114]
*391 la_oenb[115]
*392 la_oenb[116]
*393 la_oenb[117]
*394 la_oenb[118]
*395 la_oenb[119]
*396 la_oenb[11]
*397 la_oenb[120]
*398 la_oenb[121]
*399 la_oenb[122]
*400 la_oenb[123]
*401 la_oenb[124]
*402 la_oenb[125]
*403 la_oenb[126]
*404 la_oenb[127]
*405 la_oenb[12]
*406 la_oenb[13]
*407 la_oenb[14]
*408 la_oenb[15]
*409 la_oenb[16]
*410 la_oenb[17]
*411 la_oenb[18]
*412 la_oenb[19]
*413 la_oenb[1]
*414 la_oenb[20]
*415 la_oenb[21]
*416 la_oenb[22]
*417 la_oenb[23]
*418 la_oenb[24]
*419 la_oenb[25]
*420 la_oenb[26]
*421 la_oenb[27]
*422 la_oenb[28]
*423 la_oenb[29]
*424 la_oenb[2]
*425 la_oenb[30]
*426 la_oenb[31]
*427 la_oenb[32]
*428 la_oenb[33]
*429 la_oenb[34]
*430 la_oenb[35]
*431 la_oenb[36]
*432 la_oenb[37]
*433 la_oenb[38]
*434 la_oenb[39]
*435 la_oenb[3]
*436 la_oenb[40]
*437 la_oenb[41]
*438 la_oenb[42]
*439 la_oenb[43]
*440 la_oenb[44]
*441 la_oenb[45]
*442 la_oenb[46]
*443 la_oenb[47]
*444 la_oenb[48]
*445 la_oenb[49]
*446 la_oenb[4]
*447 la_oenb[50]
*448 la_oenb[51]
*449 la_oenb[52]
*450 la_oenb[53]
*451 la_oenb[54]
*452 la_oenb[55]
*453 la_oenb[56]
*454 la_oenb[57]
*455 la_oenb[58]
*456 la_oenb[59]
*457 la_oenb[5]
*458 la_oenb[60]
*459 la_oenb[61]
*460 la_oenb[62]
*461 la_oenb[63]
*462 la_oenb[64]
*463 la_oenb[65]
*464 la_oenb[66]
*465 la_oenb[67]
*466 la_oenb[68]
*467 la_oenb[69]
*468 la_oenb[6]
*469 la_oenb[70]
*470 la_oenb[71]
*471 la_oenb[72]
*472 la_oenb[73]
*473 la_oenb[74]
*474 la_oenb[75]
*475 la_oenb[76]
*476 la_oenb[77]
*477 la_oenb[78]
*478 la_oenb[79]
*479 la_oenb[7]
*480 la_oenb[80]
*481 la_oenb[81]
*482 la_oenb[82]
*483 la_oenb[83]
*484 la_oenb[84]
*485 la_oenb[85]
*486 la_oenb[86]
*487 la_oenb[87]
*488 la_oenb[88]
*489 la_oenb[89]
*490 la_oenb[8]
*491 la_oenb[90]
*492 la_oenb[91]
*493 la_oenb[92]
*494 la_oenb[93]
*495 la_oenb[94]
*496 la_oenb[95]
*497 la_oenb[96]
*498 la_oenb[97]
*499 la_oenb[98]
*500 la_oenb[99]
*501 la_oenb[9]
*504 wb_clk_i
*505 wb_rst_i
*506 wbs_ack_o
*507 wbs_adr_i[0]
*508 wbs_adr_i[10]
*509 wbs_adr_i[11]
*510 wbs_adr_i[12]
*511 wbs_adr_i[13]
*512 wbs_adr_i[14]
*513 wbs_adr_i[15]
*514 wbs_adr_i[16]
*515 wbs_adr_i[17]
*516 wbs_adr_i[18]
*517 wbs_adr_i[19]
*518 wbs_adr_i[1]
*519 wbs_adr_i[20]
*520 wbs_adr_i[21]
*521 wbs_adr_i[22]
*522 wbs_adr_i[23]
*523 wbs_adr_i[24]
*524 wbs_adr_i[25]
*525 wbs_adr_i[26]
*526 wbs_adr_i[27]
*527 wbs_adr_i[28]
*528 wbs_adr_i[29]
*529 wbs_adr_i[2]
*530 wbs_adr_i[30]
*531 wbs_adr_i[31]
*532 wbs_adr_i[3]
*533 wbs_adr_i[4]
*534 wbs_adr_i[5]
*535 wbs_adr_i[6]
*536 wbs_adr_i[7]
*537 wbs_adr_i[8]
*538 wbs_adr_i[9]
*539 wbs_cyc_i
*540 wbs_dat_i[0]
*541 wbs_dat_i[10]
*542 wbs_dat_i[11]
*543 wbs_dat_i[12]
*544 wbs_dat_i[13]
*545 wbs_dat_i[14]
*546 wbs_dat_i[15]
*547 wbs_dat_i[16]
*548 wbs_dat_i[17]
*549 wbs_dat_i[18]
*550 wbs_dat_i[19]
*551 wbs_dat_i[1]
*552 wbs_dat_i[20]
*553 wbs_dat_i[21]
*554 wbs_dat_i[22]
*555 wbs_dat_i[23]
*556 wbs_dat_i[24]
*557 wbs_dat_i[25]
*558 wbs_dat_i[26]
*559 wbs_dat_i[27]
*560 wbs_dat_i[28]
*561 wbs_dat_i[29]
*562 wbs_dat_i[2]
*563 wbs_dat_i[30]
*564 wbs_dat_i[31]
*565 wbs_dat_i[3]
*566 wbs_dat_i[4]
*567 wbs_dat_i[5]
*568 wbs_dat_i[6]
*569 wbs_dat_i[7]
*570 wbs_dat_i[8]
*571 wbs_dat_i[9]
*572 wbs_dat_o[0]
*573 net238
*574 net239
*575 net240
*576 net241
*577 net242
*578 net243
*579 net244
*580 net245
*581 net246
*582 net247
*583 wbs_dat_o[1]
*584 net248
*585 net249
*586 net250
*587 net251
*588 net252
*589 net253
*590 net254
*591 net255
*592 net256
*593 net257
*594 wbs_dat_o[2]
*595 net258
*596 net259
*597 net231
*598 net232
*599 net233
*600 net234
*601 net235
*602 net236
*603 net237
*604 wbs_sel_i[0]
*605 wbs_sel_i[1]
*606 wbs_sel_i[2]
*607 wbs_sel_i[3]
*608 wbs_stb_i
*609 wbs_we_i
*610 _000_
*611 _001_
*612 _002_
*613 _003_
*614 _004_
*615 _005_
*616 _006_
*617 _007_
*618 _008_
*619 _009_
*620 _010_
*621 _011_
*622 _012_
*623 _013_
*624 _014_
*625 _015_
*626 _016_
*627 _017_
*628 _018_
*629 _019_
*630 _020_
*631 _021_
*632 _022_
*633 _023_
*634 _024_
*635 _025_
*636 _026_
*637 _027_
*638 _028_
*639 _029_
*640 _030_
*641 _031_
*642 _032_
*643 _033_
*644 _034_
*645 _035_
*646 _036_
*647 _037_
*648 _038_
*649 _039_
*650 _040_
*651 _041_
*652 _042_
*653 _043_
*654 _044_
*655 _045_
*656 _046_
*657 _047_
*658 _048_
*659 _049_
*660 _050_
*661 _051_
*662 _052_
*663 _053_
*664 _054_
*665 _055_
*666 _056_
*667 _057_
*668 _058_
*669 _059_
*670 _060_
*671 _061_
*672 _062_
*673 _063_
*674 _064_
*675 _065_
*676 _066_
*677 _067_
*678 _068_
*679 _069_
*680 _070_
*681 _071_
*682 _072_
*683 _073_
*684 _074_
*685 _075_
*686 _076_
*687 _077_
*688 _078_
*689 _079_
*690 _080_
*691 _081_
*692 _082_
*693 _083_
*694 _084_
*695 _085_
*696 _086_
*697 _087_
*698 _088_
*699 _089_
*700 _090_
*701 _091_
*702 _092_
*703 _093_
*704 _094_
*705 _095_
*706 _096_
*707 _097_
*708 _098_
*709 _099_
*710 _100_
*711 _101_
*712 _102_
*713 _103_
*714 _104_
*715 _105_
*716 _106_
*717 _107_
*718 _108_
*719 _109_
*720 _110_
*721 _111_
*722 _112_
*723 _113_
*724 _114_
*725 _115_
*726 _116_
*727 clknet_0_wb_clk_i
*728 clknet_1_0__leaf_wb_clk_i
*729 clknet_1_1__leaf_wb_clk_i
*730 net1
*731 net10
*732 net11
*733 net12
*734 net13
*735 net14
*736 net15
*737 net16
*738 net17
*739 net18
*740 net19
*741 net2
*742 net20
*743 net21
*744 net22
*745 net23
*746 net24
*747 net25
*748 net26
*749 net27
*750 net28
*751 net29
*752 net3
*753 net30
*754 net31
*755 net32
*756 net33
*757 net34
*758 net35
*759 net36
*760 net4
*761 net5
*762 net6
*763 net7
*764 net8
*765 net9
*766 rlbp_inst0\.data_in
*767 rlbp_inst0\.data_net\[2\]
*768 rlbp_inst0\.gpio_start
*769 rlbp_inst0\.inst1\.ce_d1
*770 rlbp_inst0\.inst1\.ce_d2
*771 rlbp_inst0\.inst1\.ce_d3
*772 rlbp_inst0\.inst1\.logic_analyzer_start
*773 rlbp_inst0\.inst1\.next_state_rlbp\[0\]
*774 rlbp_inst0\.inst1\.next_state_rlbp\[1\]
*775 rlbp_inst0\.inst1\.next_state_rlbp\[2\]
*776 rlbp_inst0\.inst1\.next_state_rlbp\[3\]
*777 rlbp_inst0\.inst1\.state_rlbp\[0\]
*778 rlbp_inst0\.inst1\.state_rlbp\[1\]
*779 rlbp_inst0\.inst1\.state_rlbp\[2\]
*780 rlbp_inst0\.inst1\.state_rlbp\[3\]
*781 ANTENNA__117__B
*782 ANTENNA__123__B
*783 ANTENNA__194__A1
*784 ANTENNA_clkbuf_0_wb_clk_i_A
*785 ANTENNA_input10_A
*786 ANTENNA_input11_A
*787 ANTENNA_input12_A
*788 ANTENNA_input13_A
*789 ANTENNA_input14_A
*790 ANTENNA_input15_A
*791 ANTENNA_input16_A
*792 ANTENNA_input17_A
*793 ANTENNA_input18_A
*794 ANTENNA_input1_A
*795 ANTENNA_input2_A
*796 ANTENNA_input3_A
*797 ANTENNA_input4_A
*798 ANTENNA_input5_A
*799 ANTENNA_input6_A
*800 ANTENNA_input7_A
*801 ANTENNA_input8_A
*802 ANTENNA_input9_A
*803 FILLER_0_101
*804 FILLER_0_108
*805 FILLER_0_113
*806 FILLER_0_120
*807 FILLER_0_128
*808 FILLER_0_136
*809 FILLER_0_145
*810 FILLER_0_15
*811 FILLER_0_153
*812 FILLER_0_157
*813 FILLER_0_164
*814 FILLER_0_169
*815 FILLER_0_178
*816 FILLER_0_185
*817 FILLER_0_192
*818 FILLER_0_199
*819 FILLER_0_206
*820 FILLER_0_213
*821 FILLER_0_220
*822 FILLER_0_227
*823 FILLER_0_234
*824 FILLER_0_241
*825 FILLER_0_248
*826 FILLER_0_253
*827 FILLER_0_262
*828 FILLER_0_269
*829 FILLER_0_27
*830 FILLER_0_276
*831 FILLER_0_281
*832 FILLER_0_288
*833 FILLER_0_29
*834 FILLER_0_296
*835 FILLER_0_3
*836 FILLER_0_304
*837 FILLER_0_309
*838 FILLER_0_316
*839 FILLER_0_324
*840 FILLER_0_332
*841 FILLER_0_341
*842 FILLER_0_349
*843 FILLER_0_353
*844 FILLER_0_360
*845 FILLER_0_365
*846 FILLER_0_369
*847 FILLER_0_376
*848 FILLER_0_383
*849 FILLER_0_391
*850 FILLER_0_396
*851 FILLER_0_403
*852 FILLER_0_41
*853 FILLER_0_410
*854 FILLER_0_418
*855 FILLER_0_424
*856 FILLER_0_431
*857 FILLER_0_438
*858 FILLER_0_446
*859 FILLER_0_452
*860 FILLER_0_459
*861 FILLER_0_466
*862 FILLER_0_474
*863 FILLER_0_480
*864 FILLER_0_487
*865 FILLER_0_494
*866 FILLER_0_502
*867 FILLER_0_508
*868 FILLER_0_515
*869 FILLER_0_522
*870 FILLER_0_53
*871 FILLER_0_530
*872 FILLER_0_536
*873 FILLER_0_543
*874 FILLER_0_550
*875 FILLER_0_558
*876 FILLER_0_564
*877 FILLER_0_57
*878 FILLER_0_571
*879 FILLER_0_578
*880 FILLER_0_586
*881 FILLER_0_592
*882 FILLER_0_599
*883 FILLER_0_606
*884 FILLER_0_614
*885 FILLER_0_620
*886 FILLER_0_627
*887 FILLER_0_634
*888 FILLER_0_642
*889 FILLER_0_645
*890 FILLER_0_657
*891 FILLER_0_669
*892 FILLER_0_67
*893 FILLER_0_673
*894 FILLER_0_685
*895 FILLER_0_697
*896 FILLER_0_701
*897 FILLER_0_713
*898 FILLER_0_725
*899 FILLER_0_729
*900 FILLER_0_73
*901 FILLER_0_80
*902 FILLER_0_87
*903 FILLER_0_94
*904 FILLER_100_109
*905 FILLER_100_121
*906 FILLER_100_133
*907 FILLER_100_139
*908 FILLER_100_141
*909 FILLER_100_15
*910 FILLER_100_153
*911 FILLER_100_165
*912 FILLER_100_177
*913 FILLER_100_189
*914 FILLER_100_195
*915 FILLER_100_197
*916 FILLER_100_209
*917 FILLER_100_221
*918 FILLER_100_233
*919 FILLER_100_245
*920 FILLER_100_251
*921 FILLER_100_256
*922 FILLER_100_268
*923 FILLER_100_27
*924 FILLER_100_280
*925 FILLER_100_29
*926 FILLER_100_292
*927 FILLER_100_3
*928 FILLER_100_304
*929 FILLER_100_309
*930 FILLER_100_321
*931 FILLER_100_333
*932 FILLER_100_345
*933 FILLER_100_357
*934 FILLER_100_363
*935 FILLER_100_365
*936 FILLER_100_377
*937 FILLER_100_389
*938 FILLER_100_401
*939 FILLER_100_41
*940 FILLER_100_413
*941 FILLER_100_419
*942 FILLER_100_421
*943 FILLER_100_433
*944 FILLER_100_437
*945 FILLER_100_441
*946 FILLER_100_453
*947 FILLER_100_465
*948 FILLER_100_473
*949 FILLER_100_477
*950 FILLER_100_489
*951 FILLER_100_501
*952 FILLER_100_513
*953 FILLER_100_525
*954 FILLER_100_53
*955 FILLER_100_531
*956 FILLER_100_533
*957 FILLER_100_545
*958 FILLER_100_557
*959 FILLER_100_569
*960 FILLER_100_581
*961 FILLER_100_587
*962 FILLER_100_589
*963 FILLER_100_601
*964 FILLER_100_613
*965 FILLER_100_625
*966 FILLER_100_637
*967 FILLER_100_643
*968 FILLER_100_645
*969 FILLER_100_65
*970 FILLER_100_657
*971 FILLER_100_669
*972 FILLER_100_681
*973 FILLER_100_689
*974 FILLER_100_693
*975 FILLER_100_699
*976 FILLER_100_701
*977 FILLER_100_713
*978 FILLER_100_725
*979 FILLER_100_77
*980 FILLER_100_83
*981 FILLER_100_85
*982 FILLER_100_97
*983 FILLER_101_108
*984 FILLER_101_113
*985 FILLER_101_117
*986 FILLER_101_128
*987 FILLER_101_135
*988 FILLER_101_139
*989 FILLER_101_141
*990 FILLER_101_146
*991 FILLER_101_15
*992 FILLER_101_153
*993 FILLER_101_164
*994 FILLER_101_172
*995 FILLER_101_178
*996 FILLER_101_182
*997 FILLER_101_189
*998 FILLER_101_195
*999 FILLER_101_200
*1000 FILLER_101_207
*1001 FILLER_101_215
*1002 FILLER_101_219
*1003 FILLER_101_223
*1004 FILLER_101_228
*1005 FILLER_101_232
*1006 FILLER_101_236
*1007 FILLER_101_243
*1008 FILLER_101_251
*1009 FILLER_101_253
*1010 FILLER_101_257
*1011 FILLER_101_261
*1012 FILLER_101_265
*1013 FILLER_101_269
*1014 FILLER_101_27
*1015 FILLER_101_276
*1016 FILLER_101_281
*1017 FILLER_101_29
*1018 FILLER_101_290
*1019 FILLER_101_297
*1020 FILLER_101_3
*1021 FILLER_101_304
*1022 FILLER_101_309
*1023 FILLER_101_315
*1024 FILLER_101_321
*1025 FILLER_101_325
*1026 FILLER_101_332
*1027 FILLER_101_337
*1028 FILLER_101_344
*1029 FILLER_101_351
*1030 FILLER_101_360
*1031 FILLER_101_365
*1032 FILLER_101_369
*1033 FILLER_101_377
*1034 FILLER_101_38
*1035 FILLER_101_381
*1036 FILLER_101_388
*1037 FILLER_101_393
*1038 FILLER_101_399
*1039 FILLER_101_406
*1040 FILLER_101_418
*1041 FILLER_101_424
*1042 FILLER_101_431
*1043 FILLER_101_438
*1044 FILLER_101_446
*1045 FILLER_101_449
*1046 FILLER_101_45
*1047 FILLER_101_453
*1048 FILLER_101_460
*1049 FILLER_101_471
*1050 FILLER_101_475
*1051 FILLER_101_480
*1052 FILLER_101_489
*1053 FILLER_101_496
*1054 FILLER_101_508
*1055 FILLER_101_515
*1056 FILLER_101_52
*1057 FILLER_101_521
*1058 FILLER_101_525
*1059 FILLER_101_531
*1060 FILLER_101_536
*1061 FILLER_101_543
*1062 FILLER_101_550
*1063 FILLER_101_558
*1064 FILLER_101_564
*1065 FILLER_101_57
*1066 FILLER_101_571
*1067 FILLER_101_575
*1068 FILLER_101_579
*1069 FILLER_101_587
*1070 FILLER_101_592
*1071 FILLER_101_599
*1072 FILLER_101_606
*1073 FILLER_101_614
*1074 FILLER_101_620
*1075 FILLER_101_627
*1076 FILLER_101_63
*1077 FILLER_101_634
*1078 FILLER_101_642
*1079 FILLER_101_648
*1080 FILLER_101_655
*1081 FILLER_101_662
*1082 FILLER_101_670
*1083 FILLER_101_676
*1084 FILLER_101_683
*1085 FILLER_101_69
*1086 FILLER_101_690
*1087 FILLER_101_698
*1088 FILLER_101_701
*1089 FILLER_101_705
*1090 FILLER_101_712
*1091 FILLER_101_724
*1092 FILLER_101_729
*1093 FILLER_101_73
*1094 FILLER_101_80
*1095 FILLER_101_85
*1096 FILLER_101_92
*1097 FILLER_101_99
*1098 FILLER_10_109
*1099 FILLER_10_117
*1100 FILLER_10_129
*1101 FILLER_10_137
*1102 FILLER_10_141
*1103 FILLER_10_15
*1104 FILLER_10_153
*1105 FILLER_10_170
*1106 FILLER_10_182
*1107 FILLER_10_194
*1108 FILLER_10_197
*1109 FILLER_10_204
*1110 FILLER_10_212
*1111 FILLER_10_235
*1112 FILLER_10_242
*1113 FILLER_10_250
*1114 FILLER_10_253
*1115 FILLER_10_265
*1116 FILLER_10_27
*1117 FILLER_10_274
*1118 FILLER_10_29
*1119 FILLER_10_298
*1120 FILLER_10_3
*1121 FILLER_10_306
*1122 FILLER_10_312
*1123 FILLER_10_318
*1124 FILLER_10_322
*1125 FILLER_10_334
*1126 FILLER_10_346
*1127 FILLER_10_358
*1128 FILLER_10_365
*1129 FILLER_10_377
*1130 FILLER_10_389
*1131 FILLER_10_401
*1132 FILLER_10_41
*1133 FILLER_10_413
*1134 FILLER_10_419
*1135 FILLER_10_421
*1136 FILLER_10_433
*1137 FILLER_10_445
*1138 FILLER_10_457
*1139 FILLER_10_469
*1140 FILLER_10_475
*1141 FILLER_10_477
*1142 FILLER_10_489
*1143 FILLER_10_501
*1144 FILLER_10_513
*1145 FILLER_10_525
*1146 FILLER_10_53
*1147 FILLER_10_531
*1148 FILLER_10_533
*1149 FILLER_10_545
*1150 FILLER_10_557
*1151 FILLER_10_569
*1152 FILLER_10_581
*1153 FILLER_10_587
*1154 FILLER_10_589
*1155 FILLER_10_601
*1156 FILLER_10_613
*1157 FILLER_10_625
*1158 FILLER_10_637
*1159 FILLER_10_643
*1160 FILLER_10_645
*1161 FILLER_10_65
*1162 FILLER_10_657
*1163 FILLER_10_669
*1164 FILLER_10_681
*1165 FILLER_10_693
*1166 FILLER_10_699
*1167 FILLER_10_701
*1168 FILLER_10_713
*1169 FILLER_10_725
*1170 FILLER_10_77
*1171 FILLER_10_83
*1172 FILLER_10_85
*1173 FILLER_10_97
*1174 FILLER_11_105
*1175 FILLER_11_111
*1176 FILLER_11_113
*1177 FILLER_11_131
*1178 FILLER_11_15
*1179 FILLER_11_151
*1180 FILLER_11_163
*1181 FILLER_11_167
*1182 FILLER_11_169
*1183 FILLER_11_186
*1184 FILLER_11_210
*1185 FILLER_11_217
*1186 FILLER_11_223
*1187 FILLER_11_225
*1188 FILLER_11_229
*1189 FILLER_11_261
*1190 FILLER_11_27
*1191 FILLER_11_273
*1192 FILLER_11_279
*1193 FILLER_11_281
*1194 FILLER_11_289
*1195 FILLER_11_293
*1196 FILLER_11_3
*1197 FILLER_11_317
*1198 FILLER_11_329
*1199 FILLER_11_335
*1200 FILLER_11_337
*1201 FILLER_11_349
*1202 FILLER_11_361
*1203 FILLER_11_373
*1204 FILLER_11_385
*1205 FILLER_11_39
*1206 FILLER_11_391
*1207 FILLER_11_393
*1208 FILLER_11_405
*1209 FILLER_11_417
*1210 FILLER_11_429
*1211 FILLER_11_441
*1212 FILLER_11_447
*1213 FILLER_11_449
*1214 FILLER_11_461
*1215 FILLER_11_473
*1216 FILLER_11_485
*1217 FILLER_11_497
*1218 FILLER_11_503
*1219 FILLER_11_505
*1220 FILLER_11_51
*1221 FILLER_11_517
*1222 FILLER_11_529
*1223 FILLER_11_541
*1224 FILLER_11_55
*1225 FILLER_11_553
*1226 FILLER_11_559
*1227 FILLER_11_561
*1228 FILLER_11_57
*1229 FILLER_11_573
*1230 FILLER_11_585
*1231 FILLER_11_597
*1232 FILLER_11_609
*1233 FILLER_11_615
*1234 FILLER_11_617
*1235 FILLER_11_629
*1236 FILLER_11_641
*1237 FILLER_11_653
*1238 FILLER_11_665
*1239 FILLER_11_671
*1240 FILLER_11_673
*1241 FILLER_11_685
*1242 FILLER_11_69
*1243 FILLER_11_697
*1244 FILLER_11_709
*1245 FILLER_11_721
*1246 FILLER_11_727
*1247 FILLER_11_729
*1248 FILLER_11_81
*1249 FILLER_11_93
*1250 FILLER_12_109
*1251 FILLER_12_121
*1252 FILLER_12_133
*1253 FILLER_12_139
*1254 FILLER_12_141
*1255 FILLER_12_15
*1256 FILLER_12_153
*1257 FILLER_12_165
*1258 FILLER_12_177
*1259 FILLER_12_189
*1260 FILLER_12_195
*1261 FILLER_12_197
*1262 FILLER_12_209
*1263 FILLER_12_221
*1264 FILLER_12_228
*1265 FILLER_12_240
*1266 FILLER_12_253
*1267 FILLER_12_27
*1268 FILLER_12_277
*1269 FILLER_12_289
*1270 FILLER_12_29
*1271 FILLER_12_3
*1272 FILLER_12_301
*1273 FILLER_12_307
*1274 FILLER_12_309
*1275 FILLER_12_325
*1276 FILLER_12_337
*1277 FILLER_12_349
*1278 FILLER_12_361
*1279 FILLER_12_365
*1280 FILLER_12_377
*1281 FILLER_12_389
*1282 FILLER_12_401
*1283 FILLER_12_41
*1284 FILLER_12_413
*1285 FILLER_12_419
*1286 FILLER_12_421
*1287 FILLER_12_433
*1288 FILLER_12_445
*1289 FILLER_12_457
*1290 FILLER_12_469
*1291 FILLER_12_475
*1292 FILLER_12_477
*1293 FILLER_12_489
*1294 FILLER_12_501
*1295 FILLER_12_513
*1296 FILLER_12_525
*1297 FILLER_12_53
*1298 FILLER_12_531
*1299 FILLER_12_533
*1300 FILLER_12_545
*1301 FILLER_12_557
*1302 FILLER_12_569
*1303 FILLER_12_581
*1304 FILLER_12_587
*1305 FILLER_12_589
*1306 FILLER_12_601
*1307 FILLER_12_613
*1308 FILLER_12_625
*1309 FILLER_12_637
*1310 FILLER_12_643
*1311 FILLER_12_645
*1312 FILLER_12_65
*1313 FILLER_12_657
*1314 FILLER_12_669
*1315 FILLER_12_681
*1316 FILLER_12_693
*1317 FILLER_12_699
*1318 FILLER_12_701
*1319 FILLER_12_713
*1320 FILLER_12_725
*1321 FILLER_12_77
*1322 FILLER_12_83
*1323 FILLER_12_85
*1324 FILLER_12_97
*1325 FILLER_13_105
*1326 FILLER_13_111
*1327 FILLER_13_113
*1328 FILLER_13_125
*1329 FILLER_13_137
*1330 FILLER_13_149
*1331 FILLER_13_15
*1332 FILLER_13_161
*1333 FILLER_13_167
*1334 FILLER_13_169
*1335 FILLER_13_180
*1336 FILLER_13_188
*1337 FILLER_13_192
*1338 FILLER_13_200
*1339 FILLER_13_212
*1340 FILLER_13_219
*1341 FILLER_13_223
*1342 FILLER_13_231
*1343 FILLER_13_239
*1344 FILLER_13_247
*1345 FILLER_13_260
*1346 FILLER_13_27
*1347 FILLER_13_275
*1348 FILLER_13_279
*1349 FILLER_13_286
*1350 FILLER_13_298
*1351 FILLER_13_3
*1352 FILLER_13_304
*1353 FILLER_13_312
*1354 FILLER_13_325
*1355 FILLER_13_333
*1356 FILLER_13_337
*1357 FILLER_13_349
*1358 FILLER_13_361
*1359 FILLER_13_373
*1360 FILLER_13_385
*1361 FILLER_13_39
*1362 FILLER_13_391
*1363 FILLER_13_393
*1364 FILLER_13_405
*1365 FILLER_13_417
*1366 FILLER_13_429
*1367 FILLER_13_441
*1368 FILLER_13_447
*1369 FILLER_13_449
*1370 FILLER_13_461
*1371 FILLER_13_473
*1372 FILLER_13_485
*1373 FILLER_13_497
*1374 FILLER_13_503
*1375 FILLER_13_505
*1376 FILLER_13_51
*1377 FILLER_13_517
*1378 FILLER_13_529
*1379 FILLER_13_541
*1380 FILLER_13_55
*1381 FILLER_13_553
*1382 FILLER_13_559
*1383 FILLER_13_561
*1384 FILLER_13_57
*1385 FILLER_13_573
*1386 FILLER_13_585
*1387 FILLER_13_597
*1388 FILLER_13_609
*1389 FILLER_13_615
*1390 FILLER_13_617
*1391 FILLER_13_629
*1392 FILLER_13_641
*1393 FILLER_13_653
*1394 FILLER_13_665
*1395 FILLER_13_671
*1396 FILLER_13_673
*1397 FILLER_13_685
*1398 FILLER_13_69
*1399 FILLER_13_697
*1400 FILLER_13_709
*1401 FILLER_13_721
*1402 FILLER_13_727
*1403 FILLER_13_729
*1404 FILLER_13_81
*1405 FILLER_13_93
*1406 FILLER_14_109
*1407 FILLER_14_121
*1408 FILLER_14_133
*1409 FILLER_14_139
*1410 FILLER_14_141
*1411 FILLER_14_15
*1412 FILLER_14_153
*1413 FILLER_14_165
*1414 FILLER_14_177
*1415 FILLER_14_189
*1416 FILLER_14_195
*1417 FILLER_14_203
*1418 FILLER_14_215
*1419 FILLER_14_227
*1420 FILLER_14_235
*1421 FILLER_14_244
*1422 FILLER_14_265
*1423 FILLER_14_27
*1424 FILLER_14_274
*1425 FILLER_14_286
*1426 FILLER_14_29
*1427 FILLER_14_3
*1428 FILLER_14_301
*1429 FILLER_14_307
*1430 FILLER_14_309
*1431 FILLER_14_321
*1432 FILLER_14_333
*1433 FILLER_14_345
*1434 FILLER_14_357
*1435 FILLER_14_363
*1436 FILLER_14_365
*1437 FILLER_14_377
*1438 FILLER_14_389
*1439 FILLER_14_401
*1440 FILLER_14_41
*1441 FILLER_14_413
*1442 FILLER_14_419
*1443 FILLER_14_421
*1444 FILLER_14_433
*1445 FILLER_14_445
*1446 FILLER_14_457
*1447 FILLER_14_469
*1448 FILLER_14_475
*1449 FILLER_14_477
*1450 FILLER_14_489
*1451 FILLER_14_501
*1452 FILLER_14_513
*1453 FILLER_14_525
*1454 FILLER_14_53
*1455 FILLER_14_531
*1456 FILLER_14_533
*1457 FILLER_14_545
*1458 FILLER_14_557
*1459 FILLER_14_569
*1460 FILLER_14_581
*1461 FILLER_14_587
*1462 FILLER_14_589
*1463 FILLER_14_601
*1464 FILLER_14_613
*1465 FILLER_14_625
*1466 FILLER_14_637
*1467 FILLER_14_643
*1468 FILLER_14_645
*1469 FILLER_14_65
*1470 FILLER_14_657
*1471 FILLER_14_669
*1472 FILLER_14_681
*1473 FILLER_14_693
*1474 FILLER_14_699
*1475 FILLER_14_701
*1476 FILLER_14_713
*1477 FILLER_14_725
*1478 FILLER_14_77
*1479 FILLER_14_83
*1480 FILLER_14_85
*1481 FILLER_14_97
*1482 FILLER_15_105
*1483 FILLER_15_111
*1484 FILLER_15_113
*1485 FILLER_15_125
*1486 FILLER_15_137
*1487 FILLER_15_149
*1488 FILLER_15_15
*1489 FILLER_15_161
*1490 FILLER_15_167
*1491 FILLER_15_169
*1492 FILLER_15_181
*1493 FILLER_15_193
*1494 FILLER_15_200
*1495 FILLER_15_211
*1496 FILLER_15_219
*1497 FILLER_15_223
*1498 FILLER_15_228
*1499 FILLER_15_239
*1500 FILLER_15_243
*1501 FILLER_15_247
*1502 FILLER_15_254
*1503 FILLER_15_261
*1504 FILLER_15_269
*1505 FILLER_15_27
*1506 FILLER_15_276
*1507 FILLER_15_285
*1508 FILLER_15_3
*1509 FILLER_15_301
*1510 FILLER_15_313
*1511 FILLER_15_325
*1512 FILLER_15_333
*1513 FILLER_15_337
*1514 FILLER_15_349
*1515 FILLER_15_361
*1516 FILLER_15_373
*1517 FILLER_15_385
*1518 FILLER_15_39
*1519 FILLER_15_391
*1520 FILLER_15_393
*1521 FILLER_15_405
*1522 FILLER_15_417
*1523 FILLER_15_429
*1524 FILLER_15_441
*1525 FILLER_15_447
*1526 FILLER_15_449
*1527 FILLER_15_461
*1528 FILLER_15_473
*1529 FILLER_15_485
*1530 FILLER_15_497
*1531 FILLER_15_503
*1532 FILLER_15_505
*1533 FILLER_15_51
*1534 FILLER_15_517
*1535 FILLER_15_529
*1536 FILLER_15_541
*1537 FILLER_15_55
*1538 FILLER_15_553
*1539 FILLER_15_559
*1540 FILLER_15_561
*1541 FILLER_15_57
*1542 FILLER_15_573
*1543 FILLER_15_585
*1544 FILLER_15_597
*1545 FILLER_15_609
*1546 FILLER_15_615
*1547 FILLER_15_617
*1548 FILLER_15_629
*1549 FILLER_15_641
*1550 FILLER_15_653
*1551 FILLER_15_665
*1552 FILLER_15_671
*1553 FILLER_15_673
*1554 FILLER_15_685
*1555 FILLER_15_69
*1556 FILLER_15_697
*1557 FILLER_15_709
*1558 FILLER_15_721
*1559 FILLER_15_727
*1560 FILLER_15_729
*1561 FILLER_15_81
*1562 FILLER_15_93
*1563 FILLER_16_109
*1564 FILLER_16_121
*1565 FILLER_16_133
*1566 FILLER_16_139
*1567 FILLER_16_141
*1568 FILLER_16_15
*1569 FILLER_16_153
*1570 FILLER_16_165
*1571 FILLER_16_177
*1572 FILLER_16_189
*1573 FILLER_16_195
*1574 FILLER_16_197
*1575 FILLER_16_214
*1576 FILLER_16_225
*1577 FILLER_16_234
*1578 FILLER_16_243
*1579 FILLER_16_251
*1580 FILLER_16_259
*1581 FILLER_16_27
*1582 FILLER_16_273
*1583 FILLER_16_280
*1584 FILLER_16_289
*1585 FILLER_16_29
*1586 FILLER_16_3
*1587 FILLER_16_301
*1588 FILLER_16_307
*1589 FILLER_16_309
*1590 FILLER_16_321
*1591 FILLER_16_333
*1592 FILLER_16_345
*1593 FILLER_16_357
*1594 FILLER_16_363
*1595 FILLER_16_365
*1596 FILLER_16_377
*1597 FILLER_16_389
*1598 FILLER_16_401
*1599 FILLER_16_41
*1600 FILLER_16_413
*1601 FILLER_16_419
*1602 FILLER_16_421
*1603 FILLER_16_433
*1604 FILLER_16_445
*1605 FILLER_16_457
*1606 FILLER_16_469
*1607 FILLER_16_475
*1608 FILLER_16_477
*1609 FILLER_16_489
*1610 FILLER_16_501
*1611 FILLER_16_513
*1612 FILLER_16_525
*1613 FILLER_16_53
*1614 FILLER_16_531
*1615 FILLER_16_533
*1616 FILLER_16_545
*1617 FILLER_16_557
*1618 FILLER_16_569
*1619 FILLER_16_581
*1620 FILLER_16_587
*1621 FILLER_16_589
*1622 FILLER_16_601
*1623 FILLER_16_613
*1624 FILLER_16_625
*1625 FILLER_16_637
*1626 FILLER_16_643
*1627 FILLER_16_645
*1628 FILLER_16_65
*1629 FILLER_16_657
*1630 FILLER_16_669
*1631 FILLER_16_681
*1632 FILLER_16_693
*1633 FILLER_16_699
*1634 FILLER_16_701
*1635 FILLER_16_713
*1636 FILLER_16_725
*1637 FILLER_16_77
*1638 FILLER_16_83
*1639 FILLER_16_85
*1640 FILLER_16_97
*1641 FILLER_17_105
*1642 FILLER_17_111
*1643 FILLER_17_113
*1644 FILLER_17_125
*1645 FILLER_17_137
*1646 FILLER_17_149
*1647 FILLER_17_15
*1648 FILLER_17_161
*1649 FILLER_17_167
*1650 FILLER_17_169
*1651 FILLER_17_181
*1652 FILLER_17_193
*1653 FILLER_17_205
*1654 FILLER_17_217
*1655 FILLER_17_223
*1656 FILLER_17_225
*1657 FILLER_17_237
*1658 FILLER_17_252
*1659 FILLER_17_264
*1660 FILLER_17_27
*1661 FILLER_17_276
*1662 FILLER_17_281
*1663 FILLER_17_293
*1664 FILLER_17_3
*1665 FILLER_17_305
*1666 FILLER_17_317
*1667 FILLER_17_329
*1668 FILLER_17_335
*1669 FILLER_17_337
*1670 FILLER_17_349
*1671 FILLER_17_361
*1672 FILLER_17_373
*1673 FILLER_17_385
*1674 FILLER_17_39
*1675 FILLER_17_391
*1676 FILLER_17_393
*1677 FILLER_17_405
*1678 FILLER_17_417
*1679 FILLER_17_429
*1680 FILLER_17_441
*1681 FILLER_17_447