*SPEF "ieee 1481-1999"
*DESIGN "rlbp_macro"
*DATE "11:11:11 Fri 11 11, 1111"
*VENDOR "OpenRCX"
*PROGRAM "Parallel Extraction"
*VERSION "1.0"
*DESIGN_FLOW "NAME_SCOPE LOCAL" "PIN_CAP NONE"
*DIVIDER /
*DELIMITER :
*BUS_DELIMITER []
*T_UNIT 1 NS
*C_UNIT 1 PF
*R_UNIT 1 OHM
*L_UNIT 1 HENRY

*NAME_MAP
*1 net43
*2 net44
*3 net45
*4 net46
*5 net47
*6 net48
*7 net49
*8 net50
*9 net51
*10 net52
*11 net53
*12 io_in[0]
*13 io_in[10]
*14 io_in[11]
*15 io_in[12]
*16 io_in[13]
*17 io_in[14]
*18 io_in[15]
*19 io_in[16]
*20 io_in[17]
*21 io_in[18]
*22 io_in[19]
*23 io_in[1]
*24 io_in[20]
*25 io_in[21]
*26 io_in[22]
*27 io_in[23]
*28 io_in[24]
*29 io_in[25]
*30 io_in[26]
*31 io_in[27]
*32 io_in[28]
*33 io_in[29]
*34 io_in[2]
*35 io_in[30]
*36 io_in[31]
*37 io_in[32]
*38 io_in[33]
*39 io_in[34]
*40 io_in[35]
*41 io_in[36]
*42 io_in[37]
*43 io_in[3]
*44 io_in[4]
*45 io_in[5]
*46 io_in[6]
*47 io_in[7]
*48 io_in[8]
*49 io_in[9]
*50 net54
*51 net64
*52 net65
*53 net66
*54 net67
*55 net68
*56 net69
*57 net70
*58 net71
*59 net72
*60 net73
*61 net55
*62 net74
*63 net75
*64 net76
*65 net77
*66 net78
*67 net79
*68 net80
*69 net81
*70 net82
*71 net83
*72 net56
*73 net84
*74 net85
*75 net86
*76 net87
*77 net88
*78 net89
*79 net90
*80 net91
*81 net57
*82 net58
*83 net59
*84 net60
*85 net61
*86 net62
*87 net63
*88 net92
*89 net102
*90 net103
*91 net104
*92 net105
*93 net106
*94 net107
*95 net108
*96 net109
*97 net110
*98 net111
*99 net93
*100 net112
*101 net113
*102 net114
*103 net115
*104 net116
*105 net117
*106 net118
*107 net119
*108 net120
*109 net121
*110 net94
*111 net122
*112 net123
*113 net124
*114 net125
*115 net126
*116 net127
*117 net128
*118 net129
*119 net95
*120 net96
*121 net97
*122 net98
*123 net99
*124 net100
*125 net101
*126 net130
*127 net131
*128 net132
*129 la_data_in[0]
*130 la_data_in[100]
*131 la_data_in[101]
*132 la_data_in[102]
*133 la_data_in[103]
*134 la_data_in[104]
*135 la_data_in[105]
*136 la_data_in[106]
*137 la_data_in[107]
*138 la_data_in[108]
*139 la_data_in[109]
*140 la_data_in[10]
*141 la_data_in[110]
*142 la_data_in[111]
*143 la_data_in[112]
*144 la_data_in[113]
*145 la_data_in[114]
*146 la_data_in[115]
*147 la_data_in[116]
*148 la_data_in[117]
*149 la_data_in[118]
*150 la_data_in[119]
*151 la_data_in[11]
*152 la_data_in[120]
*153 la_data_in[121]
*154 la_data_in[122]
*155 la_data_in[123]
*156 la_data_in[124]
*157 la_data_in[125]
*158 la_data_in[126]
*159 la_data_in[127]
*160 la_data_in[12]
*161 la_data_in[13]
*162 la_data_in[14]
*163 la_data_in[15]
*164 la_data_in[16]
*165 la_data_in[17]
*166 la_data_in[18]
*167 la_data_in[19]
*168 la_data_in[1]
*169 la_data_in[20]
*170 la_data_in[21]
*171 la_data_in[22]
*172 la_data_in[23]
*173 la_data_in[24]
*174 la_data_in[25]
*175 la_data_in[26]
*176 la_data_in[27]
*177 la_data_in[28]
*178 la_data_in[29]
*179 la_data_in[2]
*180 la_data_in[30]
*181 la_data_in[31]
*182 la_data_in[32]
*183 la_data_in[33]
*184 la_data_in[34]
*185 la_data_in[35]
*186 la_data_in[36]
*187 la_data_in[37]
*188 la_data_in[38]
*189 la_data_in[39]
*190 la_data_in[3]
*191 la_data_in[40]
*192 la_data_in[41]
*193 la_data_in[42]
*194 la_data_in[43]
*195 la_data_in[44]
*196 la_data_in[45]
*197 la_data_in[46]
*198 la_data_in[47]
*199 la_data_in[48]
*200 la_data_in[49]
*201 la_data_in[4]
*202 la_data_in[50]
*203 la_data_in[51]
*204 la_data_in[52]
*205 la_data_in[53]
*206 la_data_in[54]
*207 la_data_in[55]
*208 la_data_in[56]
*209 la_data_in[57]
*210 la_data_in[58]
*211 la_data_in[59]
*212 la_data_in[5]
*213 la_data_in[60]
*214 la_data_in[61]
*215 la_data_in[62]
*216 la_data_in[63]
*217 la_data_in[64]
*218 la_data_in[65]
*219 la_data_in[66]
*220 la_data_in[67]
*221 la_data_in[68]
*222 la_data_in[69]
*223 la_data_in[6]
*224 la_data_in[70]
*225 la_data_in[71]
*226 la_data_in[72]
*227 la_data_in[73]
*228 la_data_in[74]
*229 la_data_in[75]
*230 la_data_in[76]
*231 la_data_in[77]
*232 la_data_in[78]
*233 la_data_in[79]
*234 la_data_in[7]
*235 la_data_in[80]
*236 la_data_in[81]
*237 la_data_in[82]
*238 la_data_in[83]
*239 la_data_in[84]
*240 la_data_in[85]
*241 la_data_in[86]
*242 la_data_in[87]
*243 la_data_in[88]
*244 la_data_in[89]
*245 la_data_in[8]
*246 la_data_in[90]
*247 la_data_in[91]
*248 la_data_in[92]
*249 la_data_in[93]
*250 la_data_in[94]
*251 la_data_in[95]
*252 la_data_in[96]
*253 la_data_in[97]
*254 la_data_in[98]
*255 la_data_in[99]
*256 la_data_in[9]
*257 net133
*258 net233
*259 net234
*260 net235
*261 net236
*262 net237
*263 net238
*264 net239
*265 net240
*266 net241
*267 net242
*268 net143
*269 net243
*270 net244
*271 net245
*272 net246
*273 net247
*274 net248
*275 net249
*276 net250
*277 net251
*278 net252
*279 net144
*280 net253
*281 net254
*282 net255
*283 net256
*284 net257
*285 net258
*286 net259
*287 net260
*288 net145
*289 net146
*290 net147
*291 net148
*292 net149
*293 net150
*294 net151
*295 net152
*296 net134
*297 net153
*298 net154
*299 net155
*300 net156
*301 net157
*302 net158
*303 net159
*304 net160
*305 net161
*306 net162
*307 net135
*308 net163
*309 net164
*310 net165
*311 net166
*312 net167
*313 net168
*314 net169
*315 net170
*316 net171
*317 net172
*318 net136
*319 net173
*320 net174
*321 net175
*322 net176
*323 net177
*324 net178
*325 net179
*326 net180
*327 net181
*328 net182
*329 net137
*330 net183
*331 net184
*332 net185
*333 net186
*334 net187
*335 net188
*336 net189
*337 net190
*338 net191
*339 net192
*340 net138
*341 net193
*342 net194
*343 net195
*344 net196
*345 net197
*346 net198
*347 net199
*348 net200
*349 net201
*350 net202
*351 net139
*352 net203
*353 net204
*354 net205
*355 net206
*356 net207
*357 net208
*358 net209
*359 net210
*360 net211
*361 net212
*362 net140
*363 net213
*364 net214
*365 net215
*366 net216
*367 net217
*368 net218
*369 net219
*370 net220
*371 net221
*372 net222
*373 net141
*374 net223
*375 net224
*376 net225
*377 net226
*378 net227
*379 net228
*380 net229
*381 net230
*382 net231
*383 net232
*384 net142
*385 la_oenb[0]
*386 la_oenb[100]
*387 la_oenb[101]
*388 la_oenb[102]
*389 la_oenb[103]
*390 la_oenb[104]
*391 la_oenb[105]
*392 la_oenb[106]
*393 la_oenb[107]
*394 la_oenb[108]
*395 la_oenb[109]
*396 la_oenb[10]
*397 la_oenb[110]
*398 la_oenb[111]
*399 la_oenb[112]
*400 la_oenb[113]
*401 la_oenb[114]
*402 la_oenb[115]
*403 la_oenb[116]
*404 la_oenb[117]
*405 la_oenb[118]
*406 la_oenb[119]
*407 la_oenb[11]
*408 la_oenb[120]
*409 la_oenb[121]
*410 la_oenb[122]
*411 la_oenb[123]
*412 la_oenb[124]
*413 la_oenb[125]
*414 la_oenb[126]
*415 la_oenb[127]
*416 la_oenb[12]
*417 la_oenb[13]
*418 la_oenb[14]
*419 la_oenb[15]
*420 la_oenb[16]
*421 la_oenb[17]
*422 la_oenb[18]
*423 la_oenb[19]
*424 la_oenb[1]
*425 la_oenb[20]
*426 la_oenb[21]
*427 la_oenb[22]
*428 la_oenb[23]
*429 la_oenb[24]
*430 la_oenb[25]
*431 la_oenb[26]
*432 la_oenb[27]
*433 la_oenb[28]
*434 la_oenb[29]
*435 la_oenb[2]
*436 la_oenb[30]
*437 la_oenb[31]
*438 la_oenb[32]
*439 la_oenb[33]
*440 la_oenb[34]
*441 la_oenb[35]
*442 la_oenb[36]
*443 la_oenb[37]
*444 la_oenb[38]
*445 la_oenb[39]
*446 la_oenb[3]
*447 la_oenb[40]
*448 la_oenb[41]
*449 la_oenb[42]
*450 la_oenb[43]
*451 la_oenb[44]
*452 la_oenb[45]
*453 la_oenb[46]
*454 la_oenb[47]
*455 la_oenb[48]
*456 la_oenb[49]
*457 la_oenb[4]
*458 la_oenb[50]
*459 la_oenb[51]
*460 la_oenb[52]
*461 la_oenb[53]
*462 la_oenb[54]
*463 la_oenb[55]
*464 la_oenb[56]
*465 la_oenb[57]
*466 la_oenb[58]
*467 la_oenb[59]
*468 la_oenb[5]
*469 la_oenb[60]
*470 la_oenb[61]
*471 la_oenb[62]
*472 la_oenb[63]
*473 la_oenb[64]
*474 la_oenb[65]
*475 la_oenb[66]
*476 la_oenb[67]
*477 la_oenb[68]
*478 la_oenb[69]
*479 la_oenb[6]
*480 la_oenb[70]
*481 la_oenb[71]
*482 la_oenb[72]
*483 la_oenb[73]
*484 la_oenb[74]
*485 la_oenb[75]
*486 la_oenb[76]
*487 la_oenb[77]
*488 la_oenb[78]
*489 la_oenb[79]
*490 la_oenb[7]
*491 la_oenb[80]
*492 la_oenb[81]
*493 la_oenb[82]
*494 la_oenb[83]
*495 la_oenb[84]
*496 la_oenb[85]
*497 la_oenb[86]
*498 la_oenb[87]
*499 la_oenb[88]
*500 la_oenb[89]
*501 la_oenb[8]
*502 la_oenb[90]
*503 la_oenb[91]
*504 la_oenb[92]
*505 la_oenb[93]
*506 la_oenb[94]
*507 la_oenb[95]
*508 la_oenb[96]
*509 la_oenb[97]
*510 la_oenb[98]
*511 la_oenb[99]
*512 la_oenb[9]
*513 net261
*514 net262
*517 wb_clk_i
*518 wb_rst_i
*519 wbs_ack_o
*520 wbs_adr_i[0]
*521 wbs_adr_i[10]
*522 wbs_adr_i[11]
*523 wbs_adr_i[12]
*524 wbs_adr_i[13]
*525 wbs_adr_i[14]
*526 wbs_adr_i[15]
*527 wbs_adr_i[16]
*528 wbs_adr_i[17]
*529 wbs_adr_i[18]
*530 wbs_adr_i[19]
*531 wbs_adr_i[1]
*532 wbs_adr_i[20]
*533 wbs_adr_i[21]
*534 wbs_adr_i[22]
*535 wbs_adr_i[23]
*536 wbs_adr_i[24]
*537 wbs_adr_i[25]
*538 wbs_adr_i[26]
*539 wbs_adr_i[27]
*540 wbs_adr_i[28]
*541 wbs_adr_i[29]
*542 wbs_adr_i[2]
*543 wbs_adr_i[30]
*544 wbs_adr_i[31]
*545 wbs_adr_i[3]
*546 wbs_adr_i[4]
*547 wbs_adr_i[5]
*548 wbs_adr_i[6]
*549 wbs_adr_i[7]
*550 wbs_adr_i[8]
*551 wbs_adr_i[9]
*552 wbs_cyc_i
*553 wbs_dat_i[0]
*554 wbs_dat_i[10]
*555 wbs_dat_i[11]
*556 wbs_dat_i[12]
*557 wbs_dat_i[13]
*558 wbs_dat_i[14]
*559 wbs_dat_i[15]
*560 wbs_dat_i[16]
*561 wbs_dat_i[17]
*562 wbs_dat_i[18]
*563 wbs_dat_i[19]
*564 wbs_dat_i[1]
*565 wbs_dat_i[20]
*566 wbs_dat_i[21]
*567 wbs_dat_i[22]
*568 wbs_dat_i[23]
*569 wbs_dat_i[24]
*570 wbs_dat_i[25]
*571 wbs_dat_i[26]
*572 wbs_dat_i[27]
*573 wbs_dat_i[28]
*574 wbs_dat_i[29]
*575 wbs_dat_i[2]
*576 wbs_dat_i[30]
*577 wbs_dat_i[31]
*578 wbs_dat_i[3]
*579 wbs_dat_i[4]
*580 wbs_dat_i[5]
*581 wbs_dat_i[6]
*582 wbs_dat_i[7]
*583 wbs_dat_i[8]
*584 wbs_dat_i[9]
*585 wbs_dat_o[0]
*586 wbs_dat_o[10]
*587 wbs_dat_o[11]
*588 net263
*589 net264
*590 net265
*591 net266
*592 net267
*593 net268
*594 net269
*595 net270
*596 wbs_dat_o[1]
*597 net271
*598 net272
*599 net273
*600 net274
*601 net275
*602 net276
*603 net277
*604 net278
*605 net279
*606 net280
*607 wbs_dat_o[2]
*608 net281
*609 net282
*610 wbs_dat_o[3]
*611 wbs_dat_o[4]
*612 wbs_dat_o[5]
*613 wbs_dat_o[6]
*614 wbs_dat_o[7]
*615 wbs_dat_o[8]
*616 wbs_dat_o[9]
*617 wbs_sel_i[0]
*618 wbs_sel_i[1]
*619 wbs_sel_i[2]
*620 wbs_sel_i[3]
*621 wbs_stb_i
*622 wbs_we_i
*623 _0000_
*624 _0001_
*625 _0002_
*626 _0003_
*627 _0004_
*628 _0005_
*629 _0006_
*630 _0007_
*631 _0008_
*632 _0009_
*633 _0010_
*634 _0011_
*635 _0012_
*636 _0013_
*637 _0014_
*638 _0015_
*639 _0016_
*640 _0017_
*641 _0018_
*642 _0019_
*643 _0020_
*644 _0021_
*645 _0022_
*646 _0023_
*647 _0024_
*648 _0025_
*649 _0026_
*650 _0027_
*651 _0028_
*652 _0029_
*653 _0030_
*654 _0031_
*655 _0032_
*656 _0033_
*657 _0034_
*658 _0035_
*659 _0036_
*660 _0037_
*661 _0038_
*662 _0039_
*663 _0040_
*664 _0041_
*665 _0042_
*666 _0043_
*667 _0044_
*668 _0045_
*669 _0046_
*670 _0047_
*671 _0048_
*672 _0049_
*673 _0050_
*674 _0051_
*675 _0052_
*676 _0053_
*677 _0054_
*678 _0055_
*679 _0056_
*680 _0057_
*681 _0058_
*682 _0059_
*683 _0060_
*684 _0061_
*685 _0062_
*686 _0063_
*687 _0064_
*688 _0065_
*689 _0066_
*690 _0067_
*691 _0068_
*692 _0069_
*693 _0070_
*694 _0071_
*695 _0072_
*696 _0073_
*697 _0074_
*698 _0075_
*699 _0076_
*700 _0077_
*701 _0078_
*702 _0079_
*703 _0080_
*704 _0081_
*705 _0082_
*706 _0083_
*707 _0084_
*708 _0085_
*709 _0086_
*710 _0087_
*711 _0088_
*712 _0089_
*713 _0090_
*714 _0091_
*715 _0092_
*716 _0093_
*717 _0094_
*718 _0095_
*719 _0096_
*720 _0097_
*721 _0098_
*722 _0099_
*723 _0100_
*724 _0101_
*725 _0102_
*726 _0103_
*727 _0104_
*728 _0105_
*729 _0106_
*730 _0107_
*731 _0108_
*732 _0109_
*733 _0110_
*734 _0111_
*735 _0112_
*736 _0113_
*737 _0114_
*738 _0115_
*739 _0116_
*740 _0117_
*741 _0118_
*742 _0119_
*743 _0120_
*744 _0121_
*745 _0122_
*746 _0123_
*747 _0124_
*748 _0125_
*749 _0126_
*750 _0127_
*751 _0128_
*752 _0129_
*753 _0130_
*754 _0131_
*755 _0132_
*756 _0133_
*757 _0134_
*758 _0135_
*759 _0136_
*760 _0137_
*761 _0138_
*762 _0139_
*763 _0140_
*764 _0141_
*765 _0142_
*766 _0143_
*767 _0144_
*768 _0145_
*769 _0146_
*770 _0147_
*771 _0148_
*772 _0149_
*773 _0150_
*774 _0151_
*775 _0152_
*776 _0153_
*777 _0154_
*778 _0155_
*779 _0156_
*780 _0157_
*781 _0158_
*782 _0159_
*783 _0160_
*784 _0161_
*785 _0162_
*786 _0163_
*787 _0164_
*788 _0165_
*789 _0166_
*790 _0167_
*791 _0168_
*792 _0169_
*793 _0170_
*794 _0171_
*795 _0172_
*796 _0173_
*797 _0174_
*798 _0175_
*799 _0176_
*800 _0177_
*801 _0178_
*802 _0179_
*803 _0180_
*804 _0181_
*805 _0182_
*806 _0183_
*807 _0184_
*808 _0185_
*809 _0186_
*810 _0187_
*811 _0188_
*812 _0189_
*813 _0190_
*814 _0191_
*815 _0192_
*816 _0193_
*817 _0194_
*818 _0195_
*819 _0196_
*820 _0197_
*821 _0198_
*822 _0199_
*823 _0200_
*824 _0201_
*825 _0202_
*826 _0203_
*827 _0204_
*828 _0205_
*829 _0206_
*830 _0207_
*831 _0208_
*832 _0209_
*833 _0210_
*834 _0211_
*835 _0212_
*836 _0213_
*837 _0214_
*838 _0215_
*839 _0216_
*840 _0217_
*841 _0218_
*842 _0219_
*843 _0220_
*844 _0221_
*845 _0222_
*846 _0223_
*847 _0224_
*848 _0225_
*849 _0226_
*850 _0227_
*851 _0228_
*852 _0229_
*853 _0230_
*854 _0231_
*855 _0232_
*856 _0233_
*857 _0234_
*858 _0235_
*859 _0236_
*860 _0237_
*861 _0238_
*862 _0239_
*863 _0240_
*864 _0241_
*865 _0242_
*866 _0243_
*867 _0244_
*868 _0245_
*869 _0246_
*870 _0247_
*871 _0248_
*872 _0249_
*873 _0250_
*874 _0251_
*875 _0252_
*876 _0253_
*877 _0254_
*878 _0255_
*879 _0256_
*880 _0257_
*881 _0258_
*882 _0259_
*883 _0260_
*884 _0261_
*885 _0262_
*886 _0263_
*887 _0264_
*888 _0265_
*889 _0266_
*890 _0267_
*891 _0268_
*892 _0269_
*893 _0270_
*894 _0271_
*895 _0272_
*896 _0273_
*897 _0274_
*898 _0275_
*899 _0276_
*900 _0277_
*901 _0278_
*902 _0279_
*903 _0280_
*904 _0281_
*905 _0282_
*906 _0283_
*907 _0284_
*908 _0285_
*909 _0286_
*910 _0287_
*911 _0288_
*912 _0289_
*913 _0290_
*914 _0291_
*915 _0292_
*916 _0293_
*917 _0294_
*918 _0295_
*919 _0296_
*920 _0297_
*921 _0298_
*922 _0299_
*923 _0300_
*924 _0301_
*925 _0302_
*926 _0303_
*927 _0304_
*928 _0305_
*929 _0306_
*930 _0307_
*931 _0308_
*932 _0309_
*933 _0310_
*934 _0311_
*935 _0312_
*936 _0313_
*937 _0314_
*938 _0315_
*939 _0316_
*940 _0317_
*941 _0318_
*942 _0319_
*943 _0320_
*944 _0321_
*945 _0322_
*946 _0323_
*947 _0324_
*948 _0325_
*949 _0326_
*950 _0327_
*951 _0328_
*952 _0329_
*953 _0330_
*954 _0331_
*955 _0332_
*956 _0333_
*957 _0334_
*958 _0335_
*959 _0336_
*960 _0337_
*961 _0338_
*962 _0339_
*963 _0340_
*964 _0341_
*965 _0342_
*966 _0343_
*967 _0344_
*968 _0345_
*969 _0346_
*970 _0347_
*971 _0348_
*972 _0349_
*973 _0350_
*974 _0351_
*975 _0352_
*976 _0353_
*977 _0354_
*978 _0355_
*979 _0356_
*980 _0357_
*981 _0358_
*982 _0359_
*983 _0360_
*984 _0361_
*985 _0362_
*986 _0363_
*987 _0364_
*988 _0365_
*989 _0366_
*990 _0367_
*991 _0368_
*992 _0369_
*993 _0370_
*994 _0371_
*995 _0372_
*996 _0373_
*997 _0374_
*998 _0375_
*999 _0376_
*1000 _0377_
*1001 _0378_
*1002 _0379_
*1003 _0380_
*1004 _0381_
*1005 _0382_
*1006 _0383_
*1007 _0384_
*1008 _0385_
*1009 _0386_
*1010 _0387_
*1011 _0388_
*1012 _0389_
*1013 _0390_
*1014 _0391_
*1015 _0392_
*1016 _0393_
*1017 _0394_
*1018 _0395_
*1019 _0396_
*1020 _0397_
*1021 _0398_
*1022 _0399_
*1023 _0400_
*1024 _0401_
*1025 _0402_
*1026 _0403_
*1027 _0404_
*1028 _0405_
*1029 _0406_
*1030 _0407_
*1031 _0408_
*1032 _0409_
*1033 _0410_
*1034 _0411_
*1035 _0412_
*1036 _0413_
*1037 _0414_
*1038 _0415_
*1039 _0416_
*1040 _0417_
*1041 _0418_
*1042 _0419_
*1043 _0420_
*1044 _0421_
*1045 _0422_
*1046 _0423_
*1047 _0424_
*1048 _0425_
*1049 _0426_
*1050 _0427_
*1051 _0428_
*1052 _0429_
*1053 _0430_
*1054 _0431_
*1055 _0432_
*1056 _0433_
*1057 _0434_
*1058 _0435_
*1059 _0436_
*1060 _0437_
*1061 _0438_
*1062 _0439_
*1063 _0440_
*1064 _0441_
*1065 _0442_
*1066 _0443_
*1067 _0444_
*1068 _0445_
*1069 _0446_
*1070 _0447_
*1071 _0448_
*1072 _0449_
*1073 _0450_
*1074 _0451_
*1075 _0452_
*1076 _0453_
*1077 _0454_
*1078 _0455_
*1079 _0456_
*1080 _0457_
*1081 _0458_
*1082 _0459_
*1083 _0460_
*1084 _0461_
*1085 _0462_
*1086 _0463_
*1087 _0464_
*1088 _0465_
*1089 _0466_
*1090 _0467_
*1091 _0468_
*1092 _0469_
*1093 _0470_
*1094 _0471_
*1095 _0472_
*1096 _0473_
*1097 _0474_
*1098 _0475_
*1099 _0476_
*1100 _0477_
*1101 _0478_
*1102 _0479_
*1103 _0480_
*1104 _0481_
*1105 _0482_
*1106 _0483_
*1107 _0484_
*1108 _0485_
*1109 _0486_
*1110 _0487_
*1111 _0488_
*1112 _0489_
*1113 _0490_
*1114 _0491_
*1115 _0492_
*1116 _0493_
*1117 _0494_
*1118 _0495_
*1119 _0496_
*1120 _0497_
*1121 _0498_
*1122 _0499_
*1123 _0500_
*1124 _0501_
*1125 _0502_
*1126 _0503_
*1127 _0504_
*1128 _0505_
*1129 _0506_
*1130 _0507_
*1131 _0508_
*1132 _0509_
*1133 _0510_
*1134 _0511_
*1135 _0512_
*1136 _0513_
*1137 _0514_
*1138 _0515_
*1139 _0516_
*1140 _0517_
*1141 _0518_
*1142 _0519_
*1143 _0520_
*1144 _0521_
*1145 _0522_
*1146 _0523_
*1147 _0524_
*1148 _0525_
*1149 _0526_
*1150 _0527_
*1151 _0528_
*1152 _0529_
*1153 _0530_
*1154 _0531_
*1155 _0532_
*1156 _0533_
*1157 _0534_
*1158 _0535_
*1159 _0536_
*1160 _0537_
*1161 _0538_
*1162 _0539_
*1163 _0540_
*1164 _0541_
*1165 _0542_
*1166 _0543_
*1167 _0544_
*1168 _0545_
*1169 _0546_
*1170 _0547_
*1171 _0548_
*1172 _0549_
*1173 _0550_
*1174 _0551_
*1175 _0552_
*1176 _0553_
*1177 _0554_
*1178 _0555_
*1179 _0556_
*1180 _0557_
*1181 _0558_
*1182 _0559_
*1183 _0560_
*1184 _0561_
*1185 _0562_
*1186 _0563_
*1187 _0564_
*1188 _0565_
*1189 _0566_
*1190 _0567_
*1191 _0568_
*1192 _0569_
*1193 _0570_
*1194 _0571_
*1195 _0572_
*1196 _0573_
*1197 _0574_
*1198 _0575_
*1199 _0576_
*1200 _0577_
*1201 _0578_
*1202 _0579_
*1203 _0580_
*1204 _0581_
*1205 _0582_
*1206 _0583_
*1207 _0584_
*1208 _0585_
*1209 _0586_
*1210 _0587_
*1211 _0588_
*1212 _0589_
*1213 _0590_
*1214 _0591_
*1215 _0592_
*1216 _0593_
*1217 _0594_
*1218 _0595_
*1219 _0596_
*1220 _0597_
*1221 _0598_
*1222 _0599_
*1223 _0600_
*1224 _0601_
*1225 _0602_
*1226 _0603_
*1227 _0604_
*1228 _0605_
*1229 _0606_
*1230 _0607_
*1231 _0608_
*1232 _0609_
*1233 _0610_
*1234 _0611_
*1235 _0612_
*1236 _0613_
*1237 _0614_
*1238 _0615_
*1239 _0616_
*1240 _0617_
*1241 _0618_
*1242 _0619_
*1243 _0620_
*1244 _0621_
*1245 _0622_
*1246 _0623_
*1247 _0624_
*1248 _0625_
*1249 _0626_
*1250 _0627_
*1251 _0628_
*1252 _0629_
*1253 _0630_
*1254 _0631_
*1255 _0632_
*1256 _0633_
*1257 _0634_
*1258 _0635_
*1259 _0636_
*1260 _0637_
*1261 _0638_
*1262 _0639_
*1263 _0640_
*1264 _0641_
*1265 _0642_
*1266 _0643_
*1267 _0644_
*1268 _0645_
*1269 _0646_
*1270 _0647_
*1271 _0648_
*1272 _0649_
*1273 _0650_
*1274 _0651_
*1275 _0652_
*1276 _0653_
*1277 _0654_
*1278 _0655_
*1279 _0656_
*1280 _0657_
*1281 _0658_
*1282 _0659_
*1283 _0660_
*1284 _0661_
*1285 _0662_
*1286 _0663_
*1287 _0664_
*1288 _0665_
*1289 _0666_
*1290 _0667_
*1291 _0668_
*1292 _0669_
*1293 _0670_
*1294 _0671_
*1295 _0672_
*1296 _0673_
*1297 _0674_
*1298 _0675_
*1299 _0676_
*1300 _0677_
*1301 _0678_
*1302 _0679_
*1303 _0680_
*1304 _0681_
*1305 _0682_
*1306 _0683_
*1307 _0684_
*1308 _0685_
*1309 _0686_
*1310 _0687_
*1311 _0688_
*1312 _0689_
*1313 _0690_
*1314 _0691_
*1315 _0692_
*1316 _0693_
*1317 _0694_
*1318 _0695_
*1319 _0696_
*1320 _0697_
*1321 _0698_
*1322 _0699_
*1323 _0700_
*1324 _0701_
*1325 _0702_
*1326 _0703_
*1327 _0704_
*1328 _0705_
*1329 _0706_
*1330 _0707_
*1331 _0708_
*1332 _0709_
*1333 _0710_
*1334 _0711_
*1335 _0712_
*1336 _0713_
*1337 _0714_
*1338 _0715_
*1339 _0716_
*1340 _0717_
*1341 _0718_
*1342 _0719_
*1343 _0720_
*1344 _0721_
*1345 _0722_
*1346 _0723_
*1347 _0724_
*1348 _0725_
*1349 _0726_
*1350 _0727_
*1351 _0728_
*1352 _0729_
*1353 _0730_
*1354 _0731_
*1355 _0732_
*1356 _0733_
*1357 _0734_
*1358 _0735_
*1359 _0736_
*1360 _0737_
*1361 _0738_
*1362 _0739_
*1363 _0740_
*1364 _0741_
*1365 _0742_
*1366 _0743_
*1367 _0744_
*1368 _0745_
*1369 _0746_
*1370 _0747_
*1371 _0748_
*1372 _0749_
*1373 _0750_
*1374 _0751_
*1375 _0752_
*1376 _0753_
*1377 _0754_
*1378 _0755_
*1379 _0756_
*1380 _0757_
*1381 _0758_
*1382 _0759_
*1383 _0760_
*1384 _0761_
*1385 _0762_
*1386 _0763_
*1387 _0764_
*1388 _0765_
*1389 _0766_
*1390 _0767_
*1391 _0768_
*1392 _0769_
*1393 _0770_
*1394 _0771_
*1395 _0772_
*1396 _0773_
*1397 _0774_
*1398 _0775_
*1399 _0776_
*1400 _0777_
*1401 _0778_
*1402 _0779_
*1403 _0780_
*1404 _0781_
*1405 _0782_
*1406 _0783_
*1407 _0784_
*1408 _0785_
*1409 _0786_
*1410 _0787_
*1411 _0788_
*1412 _0789_
*1413 clknet_0_wb_clk_i
*1414 clknet_1_0__leaf_wb_clk_i
*1415 clknet_1_1__leaf_wb_clk_i
*1416 clknet_leaf_0_wb_clk_i
*1417 clknet_leaf_10_wb_clk_i
*1418 clknet_leaf_11_wb_clk_i
*1419 clknet_leaf_12_wb_clk_i
*1420 clknet_leaf_13_wb_clk_i
*1421 clknet_leaf_14_wb_clk_i
*1422 clknet_leaf_15_wb_clk_i
*1423 clknet_leaf_16_wb_clk_i
*1424 clknet_leaf_17_wb_clk_i
*1425 clknet_leaf_18_wb_clk_i
*1426 clknet_leaf_19_wb_clk_i
*1427 clknet_leaf_1_wb_clk_i
*1428 clknet_leaf_20_wb_clk_i
*1429 clknet_leaf_21_wb_clk_i
*1430 clknet_leaf_22_wb_clk_i
*1431 clknet_leaf_23_wb_clk_i
*1432 clknet_leaf_24_wb_clk_i
*1433 clknet_leaf_2_wb_clk_i
*1434 clknet_leaf_3_wb_clk_i
*1435 clknet_leaf_4_wb_clk_i
*1436 clknet_leaf_5_wb_clk_i
*1437 clknet_leaf_6_wb_clk_i
*1438 clknet_leaf_7_wb_clk_i
*1439 clknet_leaf_8_wb_clk_i
*1440 clknet_leaf_9_wb_clk_i
*1441 net1
*1442 net10
*1443 net11
*1444 net12
*1445 net13
*1446 net14
*1447 net15
*1448 net16
*1449 net17
*1450 net18
*1451 net19
*1452 net2
*1453 net20
*1454 net21
*1455 net22
*1456 net23
*1457 net24
*1458 net25
*1459 net26
*1460 net27
*1461 net28
*1462 net29
*1463 net3
*1464 net30
*1465 net31
*1466 net32
*1467 net33
*1468 net34
*1469 net35
*1470 net36
*1471 net37
*1472 net38
*1473 net39
*1474 net4
*1475 net40
*1476 net41
*1477 net42
*1478 net5
*1479 net6
*1480 net7
*1481 net8
*1482 net9
*1483 rlbp_inst0\.count\[0\]
*1484 rlbp_inst0\.count\[10\]
*1485 rlbp_inst0\.count\[11\]
*1486 rlbp_inst0\.count\[1\]
*1487 rlbp_inst0\.count\[2\]
*1488 rlbp_inst0\.count\[3\]
*1489 rlbp_inst0\.count\[4\]
*1490 rlbp_inst0\.count\[5\]
*1491 rlbp_inst0\.count\[6\]
*1492 rlbp_inst0\.count\[7\]
*1493 rlbp_inst0\.count\[8\]
*1494 rlbp_inst0\.count\[9\]
*1495 time_down_counter_reset_out\[0\]
*1496 time_down_counter_reset_out\[10\]
*1497 time_down_counter_reset_out\[1\]
*1498 time_down_counter_reset_out\[2\]
*1499 time_down_counter_reset_out\[3\]
*1500 time_down_counter_reset_out\[4\]
*1501 time_down_counter_reset_out\[5\]
*1502 time_down_counter_reset_out\[6\]
*1503 time_down_counter_reset_out\[7\]
*1504 time_down_counter_reset_out\[8\]
*1505 time_down_counter_reset_out\[9\]
*1506 time_down_sh\[0\]
*1507 time_down_sh\[10\]
*1508 time_down_sh\[1\]
*1509 time_down_sh\[2\]
*1510 time_down_sh\[3\]
*1511 time_down_sh\[4\]
*1512 time_down_sh\[5\]
*1513 time_down_sh\[6\]
*1514 time_down_sh\[7\]
*1515 time_down_sh\[8\]
*1516 time_down_sh\[9\]
*1517 time_down_sh_cmp\[0\]
*1518 time_down_sh_cmp\[10\]
*1519 time_down_sh_cmp\[1\]
*1520 time_down_sh_cmp\[2\]
*1521 time_down_sh_cmp\[3\]
*1522 time_down_sh_cmp\[4\]
*1523 time_down_sh_cmp\[5\]
*1524 time_down_sh_cmp\[6\]
*1525 time_down_sh_cmp\[7\]
*1526 time_down_sh_cmp\[8\]
*1527 time_down_sh_cmp\[9\]
*1528 time_down_sh_reset\[0\]
*1529 time_down_sh_reset\[10\]
*1530 time_down_sh_reset\[1\]
*1531 time_down_sh_reset\[2\]
*1532 time_down_sh_reset\[3\]
*1533 time_down_sh_reset\[4\]
*1534 time_down_sh_reset\[5\]
*1535 time_down_sh_reset\[6\]
*1536 time_down_sh_reset\[7\]
*1537 time_down_sh_reset\[8\]
*1538 time_down_sh_reset\[9\]
*1539 time_down_sw1\[0\]
*1540 time_down_sw1\[10\]
*1541 time_down_sw1\[1\]
*1542 time_down_sw1\[2\]
*1543 time_down_sw1\[3\]
*1544 time_down_sw1\[4\]
*1545 time_down_sw1\[5\]
*1546 time_down_sw1\[6\]
*1547 time_down_sw1\[7\]
*1548 time_down_sw1\[8\]
*1549 time_down_sw1\[9\]
*1550 time_down_sw2\[0\]
*1551 time_down_sw2\[10\]
*1552 time_down_sw2\[1\]
*1553 time_down_sw2\[2\]
*1554 time_down_sw2\[3\]
*1555 time_down_sw2\[4\]
*1556 time_down_sw2\[5\]
*1557 time_down_sw2\[6\]
*1558 time_down_sw2\[7\]
*1559 time_down_sw2\[8\]
*1560 time_down_sw2\[9\]
*1561 time_down_vd1\[0\]
*1562 time_down_vd1\[10\]
*1563 time_down_vd1\[1\]
*1564 time_down_vd1\[2\]
*1565 time_down_vd1\[3\]
*1566 time_down_vd1\[4\]
*1567 time_down_vd1\[5\]
*1568 time_down_vd1\[6\]
*1569 time_down_vd1\[7\]
*1570 time_down_vd1\[8\]
*1571 time_down_vd1\[9\]
*1572 time_down_vd2\[0\]
*1573 time_down_vd2\[10\]
*1574 time_down_vd2\[1\]
*1575 time_down_vd2\[2\]
*1576 time_down_vd2\[3\]
*1577 time_down_vd2\[4\]
*1578 time_down_vd2\[5\]
*1579 time_down_vd2\[6\]
*1580 time_down_vd2\[7\]
*1581 time_down_vd2\[8\]
*1582 time_down_vd2\[9\]
*1583 time_up_counter_reset_out\[0\]
*1584 time_up_counter_reset_out\[10\]
*1585 time_up_counter_reset_out\[1\]
*1586 time_up_counter_reset_out\[2\]
*1587 time_up_counter_reset_out\[3\]
*1588 time_up_counter_reset_out\[4\]
*1589 time_up_counter_reset_out\[5\]
*1590 time_up_counter_reset_out\[6\]
*1591 time_up_counter_reset_out\[7\]
*1592 time_up_counter_reset_out\[8\]
*1593 time_up_counter_reset_out\[9\]
*1594 time_up_sh\[0\]
*1595 time_up_sh\[10\]
*1596 time_up_sh\[1\]
*1597 time_up_sh\[2\]
*1598 time_up_sh\[3\]
*1599 time_up_sh\[4\]
*1600 time_up_sh\[5\]
*1601 time_up_sh\[6\]
*1602 time_up_sh\[7\]
*1603 time_up_sh\[8\]
*1604 time_up_sh\[9\]
*1605 time_up_sh_cmp\[0\]
*1606 time_up_sh_cmp\[10\]
*1607 time_up_sh_cmp\[1\]
*1608 time_up_sh_cmp\[2\]
*1609 time_up_sh_cmp\[3\]
*1610 time_up_sh_cmp\[4\]
*1611 time_up_sh_cmp\[5\]
*1612 time_up_sh_cmp\[6\]
*1613 time_up_sh_cmp\[7\]
*1614 time_up_sh_cmp\[8\]
*1615 time_up_sh_cmp\[9\]
*1616 time_up_sh_reset\[0\]
*1617 time_up_sh_reset\[10\]
*1618 time_up_sh_reset\[1\]
*1619 time_up_sh_reset\[2\]
*1620 time_up_sh_reset\[3\]
*1621 time_up_sh_reset\[4\]
*1622 time_up_sh_reset\[5\]
*1623 time_up_sh_reset\[6\]
*1624 time_up_sh_reset\[7\]
*1625 time_up_sh_reset\[8\]
*1626 time_up_sh_reset\[9\]
*1627 time_up_sw1\[0\]
*1628 time_up_sw1\[10\]
*1629 time_up_sw1\[1\]
*1630 time_up_sw1\[2\]
*1631 time_up_sw1\[3\]
*1632 time_up_sw1\[4\]
*1633 time_up_sw1\[5\]
*1634 time_up_sw1\[6\]
*1635 time_up_sw1\[7\]
*1636 time_up_sw1\[8\]
*1637 time_up_sw1\[9\]
*1638 time_up_sw2\[0\]
*1639 time_up_sw2\[10\]
*1640 time_up_sw2\[1\]
*1641 time_up_sw2\[2\]
*1642 time_up_sw2\[3\]
*1643 time_up_sw2\[4\]
*1644 time_up_sw2\[5\]
*1645 time_up_sw2\[6\]
*1646 time_up_sw2\[7\]
*1647 time_up_sw2\[8\]
*1648 time_up_sw2\[9\]
*1649 time_up_vd1\[0\]
*1650 time_up_vd1\[10\]
*1651 time_up_vd1\[1\]
*1652 time_up_vd1\[2\]
*1653 time_up_vd1\[3\]
*1654 time_up_vd1\[4\]
*1655 time_up_vd1\[5\]
*1656 time_up_vd1\[6\]
*1657 time_up_vd1\[7\]
*1658 time_up_vd1\[8\]
*1659 time_up_vd1\[9\]
*1660 time_up_vd2\[0\]
*1661 time_up_vd2\[10\]
*1662 time_up_vd2\[1\]
*1663 time_up_vd2\[2\]
*1664 time_up_vd2\[3\]
*1665 time_up_vd2\[4\]
*1666 time_up_vd2\[5\]
*1667 time_up_vd2\[6\]
*1668 time_up_vd2\[7\]
*1669 time_up_vd2\[8\]
*1670 time_up_vd2\[9\]
*1671 ANTENNA__0803__A0
*1672 ANTENNA__0807__A
*1673 ANTENNA__0808__A0
*1674 ANTENNA__0811__A0
*1675 ANTENNA__0814__A0
*1676 ANTENNA__0817__A0
*1677 ANTENNA__0821__A0
*1678 ANTENNA__0824__A
*1679 ANTENNA__0825__A0
*1680 ANTENNA__0828__A0
*1681 ANTENNA__0831__A0
*1682 ANTENNA__0834__A0
*1683 ANTENNA__0837__A0
*1684 ANTENNA__0840__A
*1685 ANTENNA__0842__A
*1686 ANTENNA__0846__B
*1687 ANTENNA__0848__A
*1688 ANTENNA__0848__B
*1689 ANTENNA__0852__A
*1690 ANTENNA__0853__A1
*1691 ANTENNA__0854__A
*1692 ANTENNA__0856__A1
*1693 ANTENNA__0857__A
*1694 ANTENNA__0859__A1
*1695 ANTENNA__0860__A
*1696 ANTENNA__0863__A
*1697 ANTENNA__0865__A1
*1698 ANTENNA__0866__A
*1699 ANTENNA__0870__A
*1700 ANTENNA__0871__A1
*1701 ANTENNA__0872__A
*1702 ANTENNA__0874__A1
*1703 ANTENNA__0875__A
*1704 ANTENNA__0877__A1
*1705 ANTENNA__0878__A
*1706 ANTENNA__0880__A1
*1707 ANTENNA__0881__A
*1708 ANTENNA__0883__A1
*1709 ANTENNA__0884__A
*1710 ANTENNA__0886__A
*1711 ANTENNA__0894__A
*1712 ANTENNA__0897__A1
*1713 ANTENNA__0899__A1
*1714 ANTENNA__0901__A1
*1715 ANTENNA__0905__A
*1716 ANTENNA__0906__A1
*1717 ANTENNA__0910__A1
*1718 ANTENNA__0912__A1
*1719 ANTENNA__0914__A1
*1720 ANTENNA__0916__A1
*1721 ANTENNA__0919__A
*1722 ANTENNA__0921__A1
*1723 ANTENNA__0929__A
*1724 ANTENNA__0932__A1
*1725 ANTENNA__0934__A1
*1726 ANTENNA__0936__A1
*1727 ANTENNA__0941__A1
*1728 ANTENNA__0945__A1
*1729 ANTENNA__0947__A1
*1730 ANTENNA__0949__A1
*1731 ANTENNA__0952__A1
*1732 ANTENNA__0952__C1
*1733 ANTENNA__0954__A1
*1734 ANTENNA__0954__C1
*1735 ANTENNA__0956__C1
*1736 ANTENNA__0959__A
*1737 ANTENNA__0960__B
*1738 ANTENNA__0962__A
*1739 ANTENNA__0962__B
*1740 ANTENNA__0965__A1
*1741 ANTENNA__0965__C1
*1742 ANTENNA__0967__A1
*1743 ANTENNA__0967__C1
*1744 ANTENNA__0970__A1
*1745 ANTENNA__0974__A1
*1746 ANTENNA__0978__A1
*1747 ANTENNA__0980__A1
*1748 ANTENNA__0983__A1
*1749 ANTENNA__0985__A1
*1750 ANTENNA__0987__A1
*1751 ANTENNA__0992__B
*1752 ANTENNA__0994__A
*1753 ANTENNA__0994__B
*1754 ANTENNA__0997__A1
*1755 ANTENNA__0999__A
*1756 ANTENNA__1000__A
*1757 ANTENNA__1001__A1
*1758 ANTENNA__1003__A1
*1759 ANTENNA__1007__A1
*1760 ANTENNA__1011__A1
*1761 ANTENNA__1013__A
*1762 ANTENNA__1014__A1
*1763 ANTENNA__1016__A1
*1764 ANTENNA__1018__A1
*1765 ANTENNA__1020__A1
*1766 ANTENNA__1023__A
*1767 ANTENNA__1024__A
*1768 ANTENNA__1027__A
*1769 ANTENNA__1029__A
*1770 ANTENNA__1032__A
*1771 ANTENNA__1033__A1
*1772 ANTENNA__1034__A
*1773 ANTENNA__1036__A1
*1774 ANTENNA__1037__A
*1775 ANTENNA__1039__A1
*1776 ANTENNA__1040__A
*1777 ANTENNA__1042__A1
*1778 ANTENNA__1043__A
*1779 ANTENNA__1045__A1
*1780 ANTENNA__1046__A
*1781 ANTENNA__1050__A
*1782 ANTENNA__1051__A1
*1783 ANTENNA__1052__A
*1784 ANTENNA__1054__A1
*1785 ANTENNA__1055__A
*1786 ANTENNA__1057__A1
*1787 ANTENNA__1058__A
*1788 ANTENNA__1060__A1
*1789 ANTENNA__1061__A
*1790 ANTENNA__1063__A1
*1791 ANTENNA__1064__A
*1792 ANTENNA__1066__A
*1793 ANTENNA__1067__A1
*1794 ANTENNA__1067__C1
*1795 ANTENNA__1070__A
*1796 ANTENNA__1073__A
*1797 ANTENNA__1076__A1
*1798 ANTENNA__1076__C1
*1799 ANTENNA__1078__A1
*1800 ANTENNA__1078__C1
*1801 ANTENNA__1080__A1
*1802 ANTENNA__1080__C1
*1803 ANTENNA__1082__A1
*1804 ANTENNA__1082__C1
*1805 ANTENNA__1084__A
*1806 ANTENNA__1086__A1
*1807 ANTENNA__1090__A1
*1808 ANTENNA__1092__A1
*1809 ANTENNA__1094__A1
*1810 ANTENNA__1096__A1
*1811 ANTENNA__1099__A1
*1812 ANTENNA__1101__A1
*1813 ANTENNA__1104__A
*1814 ANTENNA__1105__A
*1815 ANTENNA__1107__A
*1816 ANTENNA__1110__A1
*1817 ANTENNA__1112__A1
*1818 ANTENNA__1114__A1
*1819 ANTENNA__1117__A1
*1820 ANTENNA__1119__A1
*1821 ANTENNA__1123__A1
*1822 ANTENNA__1125__A1
*1823 ANTENNA__1127__A1
*1824 ANTENNA__1130__A1
*1825 ANTENNA__1132__A1
*1826 ANTENNA__1134__A1
*1827 ANTENNA__1136__A
*1828 ANTENNA__1137__A
*1829 ANTENNA__1139__A
*1830 ANTENNA__1142__A1
*1831 ANTENNA__1144__A1