*SPEF "ieee 1481-1999"
*DESIGN "rlbp_macro"
*DATE "11:11:11 Fri 11 11, 1111"
*VENDOR "OpenRCX"
*PROGRAM "Parallel Extraction"
*VERSION "1.0"
*DESIGN_FLOW "NAME_SCOPE LOCAL" "PIN_CAP NONE"
*DIVIDER /
*DELIMITER :
*BUS_DELIMITER []
*T_UNIT 1 NS
*C_UNIT 1 PF
*R_UNIT 1 OHM
*L_UNIT 1 HENRY

*NAME_MAP
*1 io_in[0]
*2 io_in[10]
*3 io_in[11]
*4 io_in[12]
*5 io_in[13]
*6 io_in[14]
*7 io_in[15]
*8 io_in[16]
*9 io_in[17]
*10 io_in[18]
*11 io_in[19]
*12 io_in[1]
*13 io_in[20]
*14 io_in[21]
*15 io_in[22]
*16 io_in[23]
*17 io_in[24]
*18 io_in[25]
*19 io_in[26]
*20 io_in[27]
*21 io_in[28]
*22 io_in[29]
*23 io_in[2]
*24 io_in[30]
*25 io_in[31]
*26 io_in[32]
*27 io_in[33]
*28 io_in[34]
*29 io_in[35]
*30 io_in[36]
*31 io_in[37]
*32 io_in[3]
*33 io_in[4]
*34 io_in[5]
*35 io_in[6]
*36 io_in[7]
*37 io_in[8]
*38 io_in[9]
*39 net44
*40 net54
*41 net55
*42 net56
*43 net57
*44 net58
*45 net59
*46 net60
*47 net61
*48 net62
*49 net63
*50 net45
*51 net64
*52 net65
*53 net66
*54 net67
*55 net68
*56 net69
*57 net70
*58 net71
*59 net72
*60 net73
*61 net46
*62 net74
*63 net75
*64 net76
*65 net77
*66 net78
*67 net79
*68 net80
*69 net81
*70 net47
*71 net48
*72 net49
*73 net50
*74 net51
*75 net52
*76 net53
*77 net82
*78 net92
*79 net93
*80 net94
*81 net95
*82 net96
*83 net97
*84 net98
*85 net99
*86 net100
*87 net101
*88 net83
*89 net102
*90 net103
*91 net104
*92 net105
*93 net106
*94 net107
*95 net108
*96 net109
*97 net110
*98 net111
*99 net84
*100 net112
*101 net113
*102 net114
*103 net115
*104 net116
*105 net117
*106 net118
*107 net119
*108 net85
*109 net86
*110 net87
*111 net88
*112 net89
*113 net90
*114 net91
*115 net120
*116 net121
*117 net122
*118 la_data_in[0]
*119 la_data_in[100]
*120 la_data_in[101]
*121 la_data_in[102]
*122 la_data_in[103]
*123 la_data_in[104]
*124 la_data_in[105]
*125 la_data_in[106]
*126 la_data_in[107]
*127 la_data_in[108]
*128 la_data_in[109]
*129 la_data_in[10]
*130 la_data_in[110]
*131 la_data_in[111]
*132 la_data_in[112]
*133 la_data_in[113]
*134 la_data_in[114]
*135 la_data_in[115]
*136 la_data_in[116]
*137 la_data_in[117]
*138 la_data_in[118]
*139 la_data_in[119]
*140 la_data_in[11]
*141 la_data_in[120]
*142 la_data_in[121]
*143 la_data_in[122]
*144 la_data_in[123]
*145 la_data_in[124]
*146 la_data_in[125]
*147 la_data_in[126]
*148 la_data_in[127]
*149 la_data_in[12]
*150 la_data_in[13]
*151 la_data_in[14]
*152 la_data_in[15]
*153 la_data_in[16]
*154 la_data_in[17]
*155 la_data_in[18]
*156 la_data_in[19]
*157 la_data_in[1]
*158 la_data_in[20]
*159 la_data_in[21]
*160 la_data_in[22]
*161 la_data_in[23]
*162 la_data_in[24]
*163 la_data_in[25]
*164 la_data_in[26]
*165 la_data_in[27]
*166 la_data_in[28]
*167 la_data_in[29]
*168 la_data_in[2]
*169 la_data_in[30]
*170 la_data_in[31]
*171 la_data_in[32]
*172 la_data_in[33]
*173 la_data_in[34]
*174 la_data_in[35]
*175 la_data_in[36]
*176 la_data_in[37]
*177 la_data_in[38]
*178 la_data_in[39]
*179 la_data_in[3]
*180 la_data_in[40]
*181 la_data_in[41]
*182 la_data_in[42]
*183 la_data_in[43]
*184 la_data_in[44]
*185 la_data_in[45]
*186 la_data_in[46]
*187 la_data_in[47]
*188 la_data_in[48]
*189 la_data_in[49]
*190 la_data_in[4]
*191 la_data_in[50]
*192 la_data_in[51]
*193 la_data_in[52]
*194 la_data_in[53]
*195 la_data_in[54]
*196 la_data_in[55]
*197 la_data_in[56]
*198 la_data_in[57]
*199 la_data_in[58]
*200 la_data_in[59]
*201 la_data_in[5]
*202 la_data_in[60]
*203 la_data_in[61]
*204 la_data_in[62]
*205 la_data_in[63]
*206 la_data_in[64]
*207 la_data_in[65]
*208 la_data_in[66]
*209 la_data_in[67]
*210 la_data_in[68]
*211 la_data_in[69]
*212 la_data_in[6]
*213 la_data_in[70]
*214 la_data_in[71]
*215 la_data_in[72]
*216 la_data_in[73]
*217 la_data_in[74]
*218 la_data_in[75]
*219 la_data_in[76]
*220 la_data_in[77]
*221 la_data_in[78]
*222 la_data_in[79]
*223 la_data_in[7]
*224 la_data_in[80]
*225 la_data_in[81]
*226 la_data_in[82]
*227 la_data_in[83]
*228 la_data_in[84]
*229 la_data_in[85]
*230 la_data_in[86]
*231 la_data_in[87]
*232 la_data_in[88]
*233 la_data_in[89]
*234 la_data_in[8]
*235 la_data_in[90]
*236 la_data_in[91]
*237 la_data_in[92]
*238 la_data_in[93]
*239 la_data_in[94]
*240 la_data_in[95]
*241 la_data_in[96]
*242 la_data_in[97]
*243 la_data_in[98]
*244 la_data_in[99]
*245 la_data_in[9]
*246 net123
*247 net216
*248 net217
*249 net218
*250 net219
*251 net220
*252 net221
*253 net222
*254 net223
*255 net224
*256 net225
*257 net133
*258 net226
*259 net227
*260 net228
*261 net229
*262 net230
*263 net231
*264 net232
*265 net233
*266 net234
*267 net235
*268 net134
*269 net236
*270 net237
*271 net238
*272 net239
*273 net240
*274 net241
*275 net242
*276 net243
*277 net135
*278 net136
*279 net137
*280 net138
*281 net139
*282 net140
*283 net141
*284 net142
*285 net124
*286 net143
*287 net144
*288 net145
*289 net146
*290 net147
*291 net148
*292 net149
*293 net150
*294 net151
*295 net152
*296 net125
*297 net153
*298 net154
*299 net155
*300 net156
*301 net157
*302 net158
*303 net159
*304 net160
*305 net161
*306 net162
*307 net126
*308 net163
*309 net164
*310 net165
*311 net166
*312 net167
*313 net168
*314 net169
*315 net170
*316 net171
*317 net172
*318 net127
*319 net173
*320 net174
*321 net175
*322 net176
*323 net177
*324 net178
*325 net179
*326 net180
*327 net181
*328 net182
*329 net128
*330 net183
*331 net184
*332 net185
*333 net186
*334 la_data_out[64]
*335 la_data_out[65]
*336 net187
*337 net188
*338 net189
*339 net190
*340 net129
*341 net191
*342 net192
*343 net193
*344 net194
*345 net195
*346 la_data_out[75]
*347 la_data_out[76]
*348 net196
*349 net197
*350 net198
*351 net130
*352 net199
*353 net200
*354 net201
*355 la_data_out[83]
*356 la_data_out[84]
*357 la_data_out[85]
*358 net202
*359 net203
*360 net204
*361 net205
*362 net131
*363 net206
*364 net207
*365 net208
*366 net209
*367 net210
*368 net211
*369 net212
*370 net213
*371 net214
*372 net215
*373 net132
*374 la_oenb[0]
*375 la_oenb[100]
*376 la_oenb[101]
*377 la_oenb[102]
*378 la_oenb[103]
*379 la_oenb[104]
*380 la_oenb[105]
*381 la_oenb[106]
*382 la_oenb[107]
*383 la_oenb[108]
*384 la_oenb[109]
*385 la_oenb[10]
*386 la_oenb[110]
*387 la_oenb[111]
*388 la_oenb[112]
*389 la_oenb[113]
*390 la_oenb[114]
*391 la_oenb[115]
*392 la_oenb[116]
*393 la_oenb[117]
*394 la_oenb[118]
*395 la_oenb[119]
*396 la_oenb[11]
*397 la_oenb[120]
*398 la_oenb[121]
*399 la_oenb[122]
*400 la_oenb[123]
*401 la_oenb[124]
*402 la_oenb[125]
*403 la_oenb[126]
*404 la_oenb[127]
*405 la_oenb[12]
*406 la_oenb[13]
*407 la_oenb[14]
*408 la_oenb[15]
*409 la_oenb[16]
*410 la_oenb[17]
*411 la_oenb[18]
*412 la_oenb[19]
*413 la_oenb[1]
*414 la_oenb[20]
*415 la_oenb[21]
*416 la_oenb[22]
*417 la_oenb[23]
*418 la_oenb[24]
*419 la_oenb[25]
*420 la_oenb[26]
*421 la_oenb[27]
*422 la_oenb[28]
*423 la_oenb[29]
*424 la_oenb[2]
*425 la_oenb[30]
*426 la_oenb[31]
*427 la_oenb[32]
*428 la_oenb[33]
*429 la_oenb[34]
*430 la_oenb[35]
*431 la_oenb[36]
*432 la_oenb[37]
*433 la_oenb[38]
*434 la_oenb[39]
*435 la_oenb[3]
*436 la_oenb[40]
*437 la_oenb[41]
*438 la_oenb[42]
*439 la_oenb[43]
*440 la_oenb[44]
*441 la_oenb[45]
*442 la_oenb[46]
*443 la_oenb[47]
*444 la_oenb[48]
*445 la_oenb[49]
*446 la_oenb[4]
*447 la_oenb[50]
*448 la_oenb[51]
*449 la_oenb[52]
*450 la_oenb[53]
*451 la_oenb[54]
*452 la_oenb[55]
*453 la_oenb[56]
*454 la_oenb[57]
*455 la_oenb[58]
*456 la_oenb[59]
*457 la_oenb[5]
*458 la_oenb[60]
*459 la_oenb[61]
*460 la_oenb[62]
*461 la_oenb[63]
*462 la_oenb[64]
*463 la_oenb[65]
*464 la_oenb[66]
*465 la_oenb[67]
*466 la_oenb[68]
*467 la_oenb[69]
*468 la_oenb[6]
*469 la_oenb[70]
*470 la_oenb[71]
*471 la_oenb[72]
*472 la_oenb[73]
*473 la_oenb[74]
*474 la_oenb[75]
*475 la_oenb[76]
*476 la_oenb[77]
*477 la_oenb[78]
*478 la_oenb[79]
*479 la_oenb[7]
*480 la_oenb[80]
*481 la_oenb[81]
*482 la_oenb[82]
*483 la_oenb[83]
*484 la_oenb[84]
*485 la_oenb[85]
*486 la_oenb[86]
*487 la_oenb[87]
*488 la_oenb[88]
*489 la_oenb[89]
*490 la_oenb[8]
*491 la_oenb[90]
*492 la_oenb[91]
*493 la_oenb[92]
*494 la_oenb[93]
*495 la_oenb[94]
*496 la_oenb[95]
*497 la_oenb[96]
*498 la_oenb[97]
*499 la_oenb[98]
*500 la_oenb[99]
*501 la_oenb[9]
*502 net244
*505 wb_clk_i
*506 wb_rst_i
*507 net245
*508 wbs_adr_i[0]
*509 wbs_adr_i[10]
*510 wbs_adr_i[11]
*511 wbs_adr_i[12]
*512 wbs_adr_i[13]
*513 wbs_adr_i[14]
*514 wbs_adr_i[15]
*515 wbs_adr_i[16]
*516 wbs_adr_i[17]
*517 wbs_adr_i[18]
*518 wbs_adr_i[19]
*519 wbs_adr_i[1]
*520 wbs_adr_i[20]
*521 wbs_adr_i[21]
*522 wbs_adr_i[22]
*523 wbs_adr_i[23]
*524 wbs_adr_i[24]
*525 wbs_adr_i[25]
*526 wbs_adr_i[26]
*527 wbs_adr_i[27]
*528 wbs_adr_i[28]
*529 wbs_adr_i[29]
*530 wbs_adr_i[2]
*531 wbs_adr_i[30]
*532 wbs_adr_i[31]
*533 wbs_adr_i[3]
*534 wbs_adr_i[4]
*535 wbs_adr_i[5]
*536 wbs_adr_i[6]
*537 wbs_adr_i[7]
*538 wbs_adr_i[8]
*539 wbs_adr_i[9]
*540 wbs_cyc_i
*541 wbs_dat_i[0]
*542 wbs_dat_i[10]
*543 wbs_dat_i[11]
*544 wbs_dat_i[12]
*545 wbs_dat_i[13]
*546 wbs_dat_i[14]
*547 wbs_dat_i[15]
*548 wbs_dat_i[16]
*549 wbs_dat_i[17]
*550 wbs_dat_i[18]
*551 wbs_dat_i[19]
*552 wbs_dat_i[1]
*553 wbs_dat_i[20]
*554 wbs_dat_i[21]
*555 wbs_dat_i[22]
*556 wbs_dat_i[23]
*557 wbs_dat_i[24]
*558 wbs_dat_i[25]
*559 wbs_dat_i[26]
*560 wbs_dat_i[27]
*561 wbs_dat_i[28]
*562 wbs_dat_i[29]
*563 wbs_dat_i[2]
*564 wbs_dat_i[30]
*565 wbs_dat_i[31]
*566 wbs_dat_i[3]
*567 wbs_dat_i[4]
*568 wbs_dat_i[5]
*569 wbs_dat_i[6]
*570 wbs_dat_i[7]
*571 wbs_dat_i[8]
*572 wbs_dat_i[9]
*573 wbs_dat_o[0]
*574 wbs_dat_o[10]
*575 wbs_dat_o[11]
*576 wbs_dat_o[12]
*577 net246
*578 net247
*579 net248
*580 net249
*581 net250
*582 net251
*583 net252
*584 wbs_dat_o[1]
*585 net253
*586 net254
*587 net255
*588 net256
*589 net257
*590 net258
*591 net259
*592 net260
*593 net261
*594 net262
*595 wbs_dat_o[2]
*596 net263
*597 net264
*598 wbs_dat_o[3]
*599 wbs_dat_o[4]
*600 wbs_dat_o[5]
*601 wbs_dat_o[6]
*602 wbs_dat_o[7]
*603 wbs_dat_o[8]
*604 wbs_dat_o[9]
*605 wbs_sel_i[0]
*606 wbs_sel_i[1]
*607 wbs_sel_i[2]
*608 wbs_sel_i[3]
*609 wbs_stb_i
*610 wbs_we_i
*611 _000_
*612 _001_
*613 _002_
*614 _003_
*615 _004_
*616 _005_
*617 _006_
*618 _007_
*619 _008_
*620 _009_
*621 _010_
*622 _011_
*623 _012_
*624 _013_
*625 _014_
*626 _015_
*627 _016_
*628 _017_
*629 _018_
*630 _019_
*631 _020_
*632 _021_
*633 _022_
*634 _023_
*635 _024_
*636 _025_
*637 _026_
*638 _027_
*639 _028_
*640 _029_
*641 _030_
*642 _031_
*643 _032_
*644 _033_
*645 _034_
*646 _035_
*647 _036_
*648 _037_
*649 _038_
*650 _039_
*651 _040_
*652 _041_
*653 _042_
*654 _043_
*655 _044_
*656 _045_
*657 _046_
*658 _047_
*659 _048_
*660 _049_
*661 _050_
*662 _051_
*663 _052_
*664 _053_
*665 _054_
*666 _055_
*667 _056_
*668 _057_
*669 _058_
*670 _059_
*671 _060_
*672 _061_
*673 _062_
*674 _063_
*675 _064_
*676 _065_
*677 _066_
*678 _067_
*679 _068_
*680 _069_
*681 _070_
*682 _071_
*683 _072_
*684 _073_
*685 _074_
*686 _075_
*687 _076_
*688 _077_
*689 _078_
*690 _079_
*691 _080_
*692 _081_
*693 _082_
*694 _083_
*695 _084_
*696 _085_
*697 _086_
*698 _087_
*699 _088_
*700 _089_
*701 _090_
*702 _091_
*703 _092_
*704 _093_
*705 _094_
*706 _095_
*707 _096_
*708 _097_
*709 _098_
*710 _099_
*711 _100_
*712 _101_
*713 _102_
*714 _103_
*715 _104_
*716 _105_
*717 _106_
*718 _107_
*719 _108_
*720 _109_
*721 _110_
*722 _111_
*723 _112_
*724 _113_
*725 _114_
*726 _115_
*727 _116_
*728 _117_
*729 clknet_0_wb_clk_i
*730 clknet_2_0__leaf_wb_clk_i
*731 clknet_2_1__leaf_wb_clk_i
*732 clknet_2_2__leaf_wb_clk_i
*733 clknet_2_3__leaf_wb_clk_i
*734 control_reg_rlbp_fsm\[0\]
*735 control_reg_rlbp_fsm\[10\]
*736 control_reg_rlbp_fsm\[11\]
*737 control_reg_rlbp_fsm\[12\]
*738 control_reg_rlbp_fsm\[1\]
*739 control_reg_rlbp_fsm\[2\]
*740 control_reg_rlbp_fsm\[3\]
*741 control_reg_rlbp_fsm\[4\]
*742 control_reg_rlbp_fsm\[5\]
*743 control_reg_rlbp_fsm\[6\]
*744 control_reg_rlbp_fsm\[7\]
*745 control_reg_rlbp_fsm\[8\]
*746 control_reg_rlbp_fsm\[9\]
*747 net1
*748 net10
*749 net11
*750 net12
*751 net13
*752 net14
*753 net15
*754 net16
*755 net17
*756 net18
*757 net19
*758 net2
*759 net20
*760 net21
*761 net22
*762 net23
*763 net24
*764 net25
*765 net26
*766 net27
*767 net28
*768 net29
*769 net3
*770 net30
*771 net31
*772 net32
*773 net33
*774 net34
*775 net35
*776 net36
*777 net37
*778 net38
*779 net39
*780 net4
*781 net40
*782 net41
*783 net42
*784 net43
*785 net5
*786 net6
*787 net7
*788 net8
*789 net9
*790 rlbp_inst0\.inst1\.next_state_rlbp\[0\]
*791 rlbp_inst0\.inst1\.next_state_rlbp\[1\]
*792 rlbp_inst0\.inst1\.next_state_rlbp\[2\]
*793 rlbp_inst0\.inst1\.next_state_rlbp\[3\]
*794 rlbp_inst0\.inst1\.next_state_rlbp\[4\]
*795 rlbp_inst0\.inst1\.state_rlbp\[0\]
*796 rlbp_inst0\.inst1\.state_rlbp\[1\]
*797 rlbp_inst0\.inst1\.state_rlbp\[2\]
*798 rlbp_inst0\.inst1\.state_rlbp\[3\]
*799 rlbp_inst0\.inst1\.state_rlbp\[4\]
*800 ANTENNA__148__A
*801 ANTENNA__157__A
*802 ANTENNA__163__A
*803 ANTENNA__166__A
*804 ANTENNA__172__A
*805 ANTENNA__188__A
*806 ANTENNA__224__C1
*807 ANTENNA__226__C1
*808 ANTENNA__228__C1
*809 ANTENNA__230__C1
*810 ANTENNA__232__C1
*811 ANTENNA__237__A
*812 ANTENNA__238__A
*813 ANTENNA__239__A
*814 ANTENNA__240__A
*815 ANTENNA__276__D
*816 ANTENNA_clkbuf_0_wb_clk_i_A
*817 ANTENNA_input10_A
*818 ANTENNA_input11_A
*819 ANTENNA_input12_A
*820 ANTENNA_input13_A
*821 ANTENNA_input14_A
*822 ANTENNA_input15_A
*823 ANTENNA_input16_A
*824 ANTENNA_input17_A
*825 ANTENNA_input18_A
*826 ANTENNA_input19_A
*827 ANTENNA_input1_A
*828 ANTENNA_input20_A
*829 ANTENNA_input21_A
*830 ANTENNA_input22_A
*831 ANTENNA_input2_A
*832 ANTENNA_input3_A
*833 ANTENNA_input4_A
*834 ANTENNA_input5_A
*835 ANTENNA_input6_A
*836 ANTENNA_input7_A
*837 ANTENNA_input8_A
*838 ANTENNA_input9_A
*839 FILLER_0_10
*840 FILLER_0_108
*841 FILLER_0_116
*842 FILLER_0_136
*843 FILLER_0_144
*844 FILLER_0_164
*845 FILLER_0_169
*846 FILLER_0_17
*847 FILLER_0_175
*848 FILLER_0_183
*849 FILLER_0_191
*850 FILLER_0_195
*851 FILLER_0_199
*852 FILLER_0_206
*853 FILLER_0_213
*854 FILLER_0_220
*855 FILLER_0_227
*856 FILLER_0_234
*857 FILLER_0_24
*858 FILLER_0_241
*859 FILLER_0_248
*860 FILLER_0_253
*861 FILLER_0_262
*862 FILLER_0_269
*863 FILLER_0_276
*864 FILLER_0_281
*865 FILLER_0_29
*866 FILLER_0_290
*867 FILLER_0_297
*868 FILLER_0_3
*869 FILLER_0_304
*870 FILLER_0_309
*871 FILLER_0_318
*872 FILLER_0_325
*873 FILLER_0_332
*874 FILLER_0_337
*875 FILLER_0_346
*876 FILLER_0_353
*877 FILLER_0_36
*878 FILLER_0_360
*879 FILLER_0_365
*880 FILLER_0_369
*881 FILLER_0_376
*882 FILLER_0_383
*883 FILLER_0_391
*884 FILLER_0_396
*885 FILLER_0_403
*886 FILLER_0_410
*887 FILLER_0_418
*888 FILLER_0_421
*889 FILLER_0_426
*890 FILLER_0_434
*891 FILLER_0_441
*892 FILLER_0_447
*893 FILLER_0_449
*894 FILLER_0_45
*895 FILLER_0_459
*896 FILLER_0_467
*897 FILLER_0_475
*898 FILLER_0_477
*899 FILLER_0_483
*900 FILLER_0_491
*901 FILLER_0_498
*902 FILLER_0_508
*903 FILLER_0_515
*904 FILLER_0_52
*905 FILLER_0_522
*906 FILLER_0_530
*907 FILLER_0_536
*908 FILLER_0_543
*909 FILLER_0_550
*910 FILLER_0_558
*911 FILLER_0_564
*912 FILLER_0_57
*913 FILLER_0_571
*914 FILLER_0_578
*915 FILLER_0_586
*916 FILLER_0_592
*917 FILLER_0_599
*918 FILLER_0_606
*919 FILLER_0_614
*920 FILLER_0_620
*921 FILLER_0_627
*922 FILLER_0_634
*923 FILLER_0_64
*924 FILLER_0_642
*925 FILLER_0_645
*926 FILLER_0_657
*927 FILLER_0_669
*928 FILLER_0_673
*929 FILLER_0_685
*930 FILLER_0_697
*931 FILLER_0_7
*932 FILLER_0_701
*933 FILLER_0_713
*934 FILLER_0_725
*935 FILLER_0_729
*936 FILLER_0_74
*937 FILLER_0_80
*938 FILLER_0_88
*939 FILLER_100_109
*940 FILLER_100_121
*941 FILLER_100_133
*942 FILLER_100_139
*943 FILLER_100_144
*944 FILLER_100_15
*945 FILLER_100_156
*946 FILLER_100_168
*947 FILLER_100_180
*948 FILLER_100_192
*949 FILLER_100_197
*950 FILLER_100_209
*951 FILLER_100_221
*952 FILLER_100_233
*953 FILLER_100_245
*954 FILLER_100_251
*955 FILLER_100_253
*956 FILLER_100_265
*957 FILLER_100_27
*958 FILLER_100_277
*959 FILLER_100_289
*960 FILLER_100_29
*961 FILLER_100_3
*962 FILLER_100_301
*963 FILLER_100_307
*964 FILLER_100_309
*965 FILLER_100_321
*966 FILLER_100_333
*967 FILLER_100_345
*968 FILLER_100_357
*969 FILLER_100_363
*970 FILLER_100_365
*971 FILLER_100_377
*972 FILLER_100_389
*973 FILLER_100_401
*974 FILLER_100_41
*975 FILLER_100_413
*976 FILLER_100_419
*977 FILLER_100_421
*978 FILLER_100_433
*979 FILLER_100_445
*980 FILLER_100_457
*981 FILLER_100_469
*982 FILLER_100_475
*983 FILLER_100_477
*984 FILLER_100_489
*985 FILLER_100_501
*986 FILLER_100_513
*987 FILLER_100_525
*988 FILLER_100_53
*989 FILLER_100_531
*990 FILLER_100_533
*991 FILLER_100_545
*992 FILLER_100_557
*993 FILLER_100_569
*994 FILLER_100_577
*995 FILLER_100_582
*996 FILLER_100_589
*997 FILLER_100_601
*998 FILLER_100_613
*999 FILLER_100_625
*1000 FILLER_100_637
*1001 FILLER_100_643
*1002 FILLER_100_645
*1003 FILLER_100_65
*1004 FILLER_100_657
*1005 FILLER_100_669
*1006 FILLER_100_681
*1007 FILLER_100_693
*1008 FILLER_100_699
*1009 FILLER_100_701
*1010 FILLER_100_713
*1011 FILLER_100_725
*1012 FILLER_100_77
*1013 FILLER_100_83
*1014 FILLER_100_85
*1015 FILLER_100_97
*1016 FILLER_101_104
*1017 FILLER_101_108
*1018 FILLER_101_116
*1019 FILLER_101_125
*1020 FILLER_101_132
*1021 FILLER_101_141
*1022 FILLER_101_15
*1023 FILLER_101_150
*1024 FILLER_101_157
*1025 FILLER_101_164
*1026 FILLER_101_169
*1027 FILLER_101_178
*1028 FILLER_101_185
*1029 FILLER_101_192
*1030 FILLER_101_197
*1031 FILLER_101_204
*1032 FILLER_101_213
*1033 FILLER_101_220
*1034 FILLER_101_225
*1035 FILLER_101_229
*1036 FILLER_101_233
*1037 FILLER_101_240
*1038 FILLER_101_244
*1039 FILLER_101_248
*1040 FILLER_101_253
*1041 FILLER_101_258
*1042 FILLER_101_269
*1043 FILLER_101_27
*1044 FILLER_101_276
*1045 FILLER_101_281
*1046 FILLER_101_287
*1047 FILLER_101_29
*1048 FILLER_101_294
*1049 FILLER_101_3
*1050 FILLER_101_300
*1051 FILLER_101_304
*1052 FILLER_101_312
*1053 FILLER_101_323
*1054 FILLER_101_330
*1055 FILLER_101_337
*1056 FILLER_101_341
*1057 FILLER_101_348
*1058 FILLER_101_35
*1059 FILLER_101_356
*1060 FILLER_101_360
*1061 FILLER_101_368
*1062 FILLER_101_377
*1063 FILLER_101_384
*1064 FILLER_101_396
*1065 FILLER_101_403
*1066 FILLER_101_414
*1067 FILLER_101_42
*1068 FILLER_101_424
*1069 FILLER_101_428
*1070 FILLER_101_432
*1071 FILLER_101_439
*1072 FILLER_101_447
*1073 FILLER_101_452
*1074 FILLER_101_459
*1075 FILLER_101_468
*1076 FILLER_101_48
*1077 FILLER_101_480
*1078 FILLER_101_487
*1079 FILLER_101_494
*1080 FILLER_101_502
*1081 FILLER_101_508
*1082 FILLER_101_515
*1083 FILLER_101_52
*1084 FILLER_101_522
*1085 FILLER_101_530
*1086 FILLER_101_536
*1087 FILLER_101_543
*1088 FILLER_101_550
*1089 FILLER_101_558
*1090 FILLER_101_564
*1091 FILLER_101_571
*1092 FILLER_101_578
*1093 FILLER_101_586
*1094 FILLER_101_589
*1095 FILLER_101_594
*1096 FILLER_101_60
*1097 FILLER_101_601
*1098 FILLER_101_612
*1099 FILLER_101_620
*1100 FILLER_101_626
*1101 FILLER_101_630
*1102 FILLER_101_637
*1103 FILLER_101_643
*1104 FILLER_101_648
*1105 FILLER_101_655
*1106 FILLER_101_666
*1107 FILLER_101_676
*1108 FILLER_101_680
*1109 FILLER_101_684
*1110 FILLER_101_691
*1111 FILLER_101_699
*1112 FILLER_101_704
*1113 FILLER_101_71
*1114 FILLER_101_711
*1115 FILLER_101_718
*1116 FILLER_101_726
*1117 FILLER_101_729
*1118 FILLER_101_78
*1119 FILLER_101_85
*1120 FILLER_101_89
*1121 FILLER_101_96
*1122 FILLER_10_121
*1123 FILLER_10_127
*1124 FILLER_10_133
*1125 FILLER_10_139
*1126 FILLER_10_141
*1127 FILLER_10_145
*1128 FILLER_10_148
*1129 FILLER_10_15
*1130 FILLER_10_154
*1131 FILLER_10_160
*1132 FILLER_10_181
*1133 FILLER_10_188
*1134 FILLER_10_197
*1135 FILLER_10_209
*1136 FILLER_10_214
*1137 FILLER_10_228
*1138 FILLER_10_238
*1139 FILLER_10_250
*1140 FILLER_10_253
*1141 FILLER_10_265
*1142 FILLER_10_27
*1143 FILLER_10_277
*1144 FILLER_10_289
*1145 FILLER_10_29
*1146 FILLER_10_3
*1147 FILLER_10_301
*1148 FILLER_10_307
*1149 FILLER_10_309
*1150 FILLER_10_321
*1151 FILLER_10_33
*1152 FILLER_10_333
*1153 FILLER_10_345
*1154 FILLER_10_357
*1155 FILLER_10_363
*1156 FILLER_10_365
*1157 FILLER_10_377
*1158 FILLER_10_389
*1159 FILLER_10_40
*1160 FILLER_10_401
*1161 FILLER_10_413
*1162 FILLER_10_419
*1163 FILLER_10_421
*1164 FILLER_10_433
*1165 FILLER_10_445
*1166 FILLER_10_457
*1167 FILLER_10_469
*1168 FILLER_10_475
*1169 FILLER_10_477
*1170 FILLER_10_489
*1171 FILLER_10_49
*1172 FILLER_10_501
*1173 FILLER_10_513
*1174 FILLER_10_525
*1175 FILLER_10_531
*1176 FILLER_10_533
*1177 FILLER_10_545
*1178 FILLER_10_557
*1179 FILLER_10_569
*1180 FILLER_10_581
*1181 FILLER_10_587
*1182 FILLER_10_589
*1183 FILLER_10_601
*1184 FILLER_10_61
*1185 FILLER_10_613
*1186 FILLER_10_625
*1187 FILLER_10_637
*1188 FILLER_10_643
*1189 FILLER_10_645
*1190 FILLER_10_657
*1191 FILLER_10_669
*1192 FILLER_10_681
*1193 FILLER_10_693
*1194 FILLER_10_699
*1195 FILLER_10_701
*1196 FILLER_10_713
*1197 FILLER_10_725
*1198 FILLER_10_75
*1199 FILLER_10_83
*1200 FILLER_10_93
*1201 FILLER_11_108
*1202 FILLER_11_113
*1203 FILLER_11_119
*1204 FILLER_11_136
*1205 FILLER_11_15
*1206 FILLER_11_156
*1207 FILLER_11_169
*1208 FILLER_11_181
*1209 FILLER_11_193
*1210 FILLER_11_205
*1211 FILLER_11_217
*1212 FILLER_11_223
*1213 FILLER_11_225
*1214 FILLER_11_234
*1215 FILLER_11_246
*1216 FILLER_11_258
*1217 FILLER_11_27
*1218 FILLER_11_270
*1219 FILLER_11_278
*1220 FILLER_11_281
*1221 FILLER_11_293
*1222 FILLER_11_3
*1223 FILLER_11_305
*1224 FILLER_11_317
*1225 FILLER_11_329
*1226 FILLER_11_335
*1227 FILLER_11_337
*1228 FILLER_11_349
*1229 FILLER_11_361
*1230 FILLER_11_373
*1231 FILLER_11_385
*1232 FILLER_11_39
*1233 FILLER_11_391
*1234 FILLER_11_393
*1235 FILLER_11_405
*1236 FILLER_11_417
*1237 FILLER_11_429
*1238 FILLER_11_43
*1239 FILLER_11_441
*1240 FILLER_11_447
*1241 FILLER_11_449
*1242 FILLER_11_461
*1243 FILLER_11_473
*1244 FILLER_11_485
*1245 FILLER_11_497
*1246 FILLER_11_503
*1247 FILLER_11_505
*1248 FILLER_11_517
*1249 FILLER_11_52
*1250 FILLER_11_529
*1251 FILLER_11_541
*1252 FILLER_11_553
*1253 FILLER_11_559
*1254 FILLER_11_561
*1255 FILLER_11_57
*1256 FILLER_11_573
*1257 FILLER_11_585
*1258 FILLER_11_597
*1259 FILLER_11_609
*1260 FILLER_11_615
*1261 FILLER_11_617
*1262 FILLER_11_629
*1263 FILLER_11_64
*1264 FILLER_11_641
*1265 FILLER_11_653
*1266 FILLER_11_665
*1267 FILLER_11_671
*1268 FILLER_11_673
*1269 FILLER_11_685
*1270 FILLER_11_697
*1271 FILLER_11_709
*1272 FILLER_11_721
*1273 FILLER_11_727
*1274 FILLER_11_729
*1275 FILLER_11_78
*1276 FILLER_11_90
*1277 FILLER_12_116
*1278 FILLER_12_128
*1279 FILLER_12_141
*1280 FILLER_12_15
*1281 FILLER_12_153
*1282 FILLER_12_173
*1283 FILLER_12_181
*1284 FILLER_12_185
*1285 FILLER_12_192
*1286 FILLER_12_197
*1287 FILLER_12_209
*1288 FILLER_12_221
*1289 FILLER_12_233
*1290 FILLER_12_245
*1291 FILLER_12_251
*1292 FILLER_12_253
*1293 FILLER_12_265
*1294 FILLER_12_27
*1295 FILLER_12_277
*1296 FILLER_12_289
*1297 FILLER_12_29
*1298 FILLER_12_3
*1299 FILLER_12_301
*1300 FILLER_12_307
*1301 FILLER_12_309
*1302 FILLER_12_321
*1303 FILLER_12_333
*1304 FILLER_12_345
*1305 FILLER_12_357
*1306 FILLER_12_363
*1307 FILLER_12_365
*1308 FILLER_12_37
*1309 FILLER_12_377
*1310 FILLER_12_389
*1311 FILLER_12_401
*1312 FILLER_12_413
*1313 FILLER_12_419
*1314 FILLER_12_421
*1315 FILLER_12_433
*1316 FILLER_12_44
*1317 FILLER_12_445
*1318 FILLER_12_457
*1319 FILLER_12_469
*1320 FILLER_12_475
*1321 FILLER_12_477
*1322 FILLER_12_489
*1323 FILLER_12_501
*1324 FILLER_12_513
*1325 FILLER_12_525
*1326 FILLER_12_53
*1327 FILLER_12_531
*1328 FILLER_12_533
*1329 FILLER_12_545
*1330 FILLER_12_557
*1331 FILLER_12_569
*1332 FILLER_12_581
*1333 FILLER_12_587
*1334 FILLER_12_589
*1335 FILLER_12_601
*1336 FILLER_12_613
*1337 FILLER_12_625
*1338 FILLER_12_637
*1339 FILLER_12_643
*1340 FILLER_12_645
*1341 FILLER_12_65
*1342 FILLER_12_657
*1343 FILLER_12_669
*1344 FILLER_12_681
*1345 FILLER_12_693
*1346 FILLER_12_699
*1347 FILLER_12_701
*1348 FILLER_12_713
*1349 FILLER_12_725
*1350 FILLER_12_77
*1351 FILLER_12_83
*1352 FILLER_12_93
*1353 FILLER_12_99
*1354 FILLER_13_101
*1355 FILLER_13_109
*1356 FILLER_13_113
*1357 FILLER_13_117
*1358 FILLER_13_134
*1359 FILLER_13_146
*1360 FILLER_13_15
*1361 FILLER_13_158
*1362 FILLER_13_166
*1363 FILLER_13_189
*1364 FILLER_13_201
*1365 FILLER_13_213
*1366 FILLER_13_221
*1367 FILLER_13_225
*1368 FILLER_13_237
*1369 FILLER_13_249
*1370 FILLER_13_261
*1371 FILLER_13_27
*1372 FILLER_13_273
*1373 FILLER_13_279
*1374 FILLER_13_281
*1375 FILLER_13_293
*1376 FILLER_13_3
*1377 FILLER_13_305
*1378 FILLER_13_317
*1379 FILLER_13_329
*1380 FILLER_13_335
*1381 FILLER_13_337
*1382 FILLER_13_349
*1383 FILLER_13_361
*1384 FILLER_13_373
*1385 FILLER_13_385
*1386 FILLER_13_39
*1387 FILLER_13_391
*1388 FILLER_13_393
*1389 FILLER_13_405
*1390 FILLER_13_417
*1391 FILLER_13_429
*1392 FILLER_13_441
*1393 FILLER_13_447
*1394 FILLER_13_449
*1395 FILLER_13_461
*1396 FILLER_13_473
*1397 FILLER_13_485
*1398 FILLER_13_497
*1399 FILLER_13_503
*1400 FILLER_13_505
*1401 FILLER_13_517
*1402 FILLER_13_52
*1403 FILLER_13_529
*1404 FILLER_13_541
*1405 FILLER_13_553
*1406 FILLER_13_559
*1407 FILLER_13_561
*1408 FILLER_13_573
*1409 FILLER_13_585
*1410 FILLER_13_597
*1411 FILLER_13_609
*1412 FILLER_13_615
*1413 FILLER_13_617
*1414 FILLER_13_62
*1415 FILLER_13_629
*1416 FILLER_13_641
*1417 FILLER_13_653
*1418 FILLER_13_665
*1419 FILLER_13_671
*1420 FILLER_13_673
*1421 FILLER_13_68
*1422 FILLER_13_685
*1423 FILLER_13_697
*1424 FILLER_13_709
*1425 FILLER_13_721
*1426 FILLER_13_727
*1427 FILLER_13_729
*1428 FILLER_13_77
*1429 FILLER_13_89
*1430 FILLER_14_116
*1431 FILLER_14_128
*1432 FILLER_14_15
*1433 FILLER_14_157
*1434 FILLER_14_161
*1435 FILLER_14_178
*1436 FILLER_14_190
*1437 FILLER_14_197
*1438 FILLER_14_209
*1439 FILLER_14_221
*1440 FILLER_14_233
*1441 FILLER_14_245
*1442 FILLER_14_251
*1443 FILLER_14_253
*1444 FILLER_14_265
*1445 FILLER_14_27
*1446 FILLER_14_277
*1447 FILLER_14_289
*1448 FILLER_14_29
*1449 FILLER_14_3
*1450 FILLER_14_301
*1451 FILLER_14_307
*1452 FILLER_14_309
*1453 FILLER_14_321
*1454 FILLER_14_333
*1455 FILLER_14_345
*1456 FILLER_14_357
*1457 FILLER_14_363
*1458 FILLER_14_365
*1459 FILLER_14_377
*1460 FILLER_14_389
*1461 FILLER_14_401
*1462 FILLER_14_41
*1463 FILLER_14_413
*1464 FILLER_14_419
*1465 FILLER_14_421
*1466 FILLER_14_433
*1467 FILLER_14_445
*1468 FILLER_14_457
*1469 FILLER_14_469
*1470 FILLER_14_475
*1471 FILLER_14_477
*1472 FILLER_14_489
*1473 FILLER_14_501
*1474 FILLER_14_513
*1475 FILLER_14_525
*1476 FILLER_14_53
*1477 FILLER_14_531
*1478 FILLER_14_533
*1479 FILLER_14_545
*1480 FILLER_14_557
*1481 FILLER_14_569
*1482 FILLER_14_581
*1483 FILLER_14_587
*1484 FILLER_14_589
*1485 FILLER_14_601
*1486 FILLER_14_613
*1487 FILLER_14_625
*1488 FILLER_14_637
*1489 FILLER_14_643
*1490 FILLER_14_645
*1491 FILLER_14_65
*1492 FILLER_14_657
*1493 FILLER_14_669
*1494 FILLER_14_681
*1495 FILLER_14_693
*1496 FILLER_14_699
*1497 FILLER_14_701
*1498 FILLER_14_713
*1499 FILLER_14_725
*1500 FILLER_14_77
*1501 FILLER_14_83
*1502 FILLER_14_93
*1503 FILLER_14_99
*1504 FILLER_15_110
*1505 FILLER_15_113
*1506 FILLER_15_125
*1507 FILLER_15_137
*1508 FILLER_15_145
*1509 FILLER_15_15
*1510 FILLER_15_155
*1511 FILLER_15_167
*1512 FILLER_15_169
*1513 FILLER_15_181
*1514 FILLER_15_193
*1515 FILLER_15_205
*1516 FILLER_15_217
*1517 FILLER_15_223
*1518 FILLER_15_225
*1519 FILLER_15_237
*1520 FILLER_15_249
*1521 FILLER_15_261
*1522 FILLER_15_27
*1523 FILLER_15_273
*1524 FILLER_15_279
*1525 FILLER_15_281
*1526 FILLER_15_293
*1527 FILLER_15_3
*1528 FILLER_15_305
*1529 FILLER_15_317
*1530 FILLER_15_329
*1531 FILLER_15_335
*1532 FILLER_15_337
*1533 FILLER_15_349
*1534 FILLER_15_361
*1535 FILLER_15_373
*1536 FILLER_15_385
*1537 FILLER_15_39
*1538 FILLER_15_391
*1539 FILLER_15_393
*1540 FILLER_15_405
*1541 FILLER_15_417
*1542 FILLER_15_429
*1543 FILLER_15_441
*1544 FILLER_15_447
*1545 FILLER_15_449
*1546 FILLER_15_461
*1547 FILLER_15_473
*1548 FILLER_15_485
*1549 FILLER_15_497
*1550 FILLER_15_503
*1551 FILLER_15_505
*1552 FILLER_15_51
*1553 FILLER_15_517
*1554 FILLER_15_529
*1555 FILLER_15_541
*1556 FILLER_15_55
*1557 FILLER_15_553
*1558 FILLER_15_559
*1559 FILLER_15_561
*1560 FILLER_15_57
*1561 FILLER_15_573
*1562 FILLER_15_585
*1563 FILLER_15_597
*1564 FILLER_15_609
*1565 FILLER_15_615
*1566 FILLER_15_617
*1567 FILLER_15_629
*1568 FILLER_15_641
*1569 FILLER_15_653
*1570 FILLER_15_665
*1571 FILLER_15_671
*1572 FILLER_15_673
*1573 FILLER_15_685
*1574 FILLER_15_69
*1575 FILLER_15_697
*1576 FILLER_15_709
*1577 FILLER_15_721
*1578 FILLER_15_727
*1579 FILLER_15_729
*1580 FILLER_15_77
*1581 FILLER_15_86
*1582 FILLER_15_98
*1583 FILLER_16_115
*1584 FILLER_16_127
*1585 FILLER_16_139
*1586 FILLER_16_141
*1587 FILLER_16_147
*1588 FILLER_16_15
*1589 FILLER_16_156
*1590 FILLER_16_168
*1591 FILLER_16_180
*1592 FILLER_16_192
*1593 FILLER_16_197
*1594 FILLER_16_209
*1595 FILLER_16_221
*1596 FILLER_16_233
*1597 FILLER_16_245
*1598 FILLER_16_251
*1599 FILLER_16_253
*1600 FILLER_16_265
*1601 FILLER_16_27
*1602 FILLER_16_277
*1603 FILLER_16_289
*1604 FILLER_16_29
*1605 FILLER_16_3
*1606 FILLER_16_301
*1607 FILLER_16_307
*1608 FILLER_16_309
*1609 FILLER_16_321
*1610 FILLER_16_333
*1611 FILLER_16_345
*1612 FILLER_16_357
*1613 FILLER_16_363
*1614 FILLER_16_365
*1615 FILLER_16_377
*1616 FILLER_16_389
*1617 FILLER_16_401
*1618 FILLER_16_41
*1619 FILLER_16_413
*1620 FILLER_16_419
*1621 FILLER_16_421
*1622 FILLER_16_433
*1623 FILLER_16_445
*1624 FILLER_16_457
*1625 FILLER_16_469
*1626 FILLER_16_475
*1627 FILLER_16_477
*1628 FILLER_16_489
*1629 FILLER_16_501
*1630 FILLER_16_513
*1631 FILLER_16_525
*1632 FILLER_16_53
*1633 FILLER_16_531
*1634 FILLER_16_533
*1635 FILLER_16_545
*1636 FILLER_16_557
*1637 FILLER_16_569
*1638 FILLER_16_581
*1639 FILLER_16_587
*1640 FILLER_16_589
*1641 FILLER_16_601
*1642 FILLER_16_613
*1643 FILLER_16_625
*1644 FILLER_16_637
*1645 FILLER_16_643
*1646 FILLER_16_645
*1647 FILLER_16_65
*1648 FILLER_16_657
*1649 FILLER_16_669
*1650 FILLER_16_681
*1651 FILLER_16_693
*1652 FILLER_16_699
*1653 FILLER_16_701
*1654 FILLER_16_713
*1655 FILLER_16_725
*1656 FILLER_16_77
*1657 FILLER_16_83
*1658 FILLER_16_85
*1659 FILLER_16_97
*1660 FILLER_17_105
*1661 FILLER_17_111
*1662 FILLER_17_113
*1663 FILLER_17_125
*1664 FILLER_17_137
*1665 FILLER_17_149
*1666 FILLER_17_15
*1667 FILLER_17_161
*1668 FILLER_17_167
*1669 FILLER_17_169
*1670 FILLER_17_181
*1671 FILLER_17_193
*1672 FILLER_17_205
*1673 FILLER_17_217
*1674 FILLER_17_223
*1675 FILLER_17_225