*SPEF "ieee 1481-1999"
*DESIGN "rlbp_macro"
*DATE "11:11:11 Fri 11 11, 1111"
*VENDOR "OpenRCX"
*PROGRAM "Parallel Extraction"
*VERSION "1.0"
*DESIGN_FLOW "NAME_SCOPE LOCAL" "PIN_CAP NONE"
*DIVIDER /
*DELIMITER :
*BUS_DELIMITER []
*T_UNIT 1 NS
*C_UNIT 1 PF
*R_UNIT 1 OHM
*L_UNIT 1 HENRY

*NAME_MAP
*1 CMP_out_c
*2 OTA_out_c
*3 OTA_sh_c
*4 Pd10_a
*5 Pd10_b
*6 Pd11_a
*7 Pd11_b
*8 Pd12_a
*9 Pd12_b
*10 Pd1_a
*11 Pd1_b
*12 Pd2_a
*13 Pd2_b
*14 Pd3_a
*15 Pd3_b
*16 Pd4_a
*17 Pd4_b
*18 Pd5_a
*19 Pd5_b
*20 Pd6_a
*21 Pd6_b
*22 Pd7_a
*23 Pd7_b
*24 Pd8_a
*25 Pd8_b
*26 Pd9_a
*27 Pd9_b
*28 net103
*29 net104
*30 net105
*31 net106
*32 net107
*33 net108
*34 net109
*35 net110
*36 net111
*37 SH_out_c
*38 net112
*39 net113
*40 net114
*41 net115
*42 net116
*43 net117
*44 net118
*45 Vref_cmp_c
*46 Vref_sel_c
*47 net119
*48 net120
*49 net121
*50 net122
*51 ext_clk
*52 ext_reset
*53 ext_start
*54 io_in[0]
*55 io_in[10]
*56 io_in[11]
*57 io_in[12]
*58 io_in[13]
*59 io_in[14]
*60 io_in[15]
*61 io_in[16]
*62 io_in[17]
*63 io_in[18]
*64 io_in[19]
*65 io_in[1]
*66 io_in[20]
*67 io_in[21]
*68 io_in[22]
*69 io_in[23]
*70 io_in[24]
*71 io_in[25]
*72 io_in[26]
*73 io_in[27]
*74 io_in[28]
*75 io_in[29]
*76 io_in[2]
*77 io_in[30]
*78 io_in[31]
*79 io_in[32]
*80 io_in[33]
*81 io_in[34]
*82 io_in[35]
*83 io_in[36]
*84 io_in[37]
*85 io_in[3]
*86 io_in[4]
*87 io_in[5]
*88 io_in[6]
*89 io_in[7]
*90 io_in[8]
*91 io_in[9]
*92 net123
*93 net133
*94 net134
*95 net135
*96 net136
*97 net137
*98 net138
*99 net139
*100 net140
*101 net141
*102 net142
*103 net124
*104 net143
*105 net144
*106 net145
*107 net146
*108 net147
*109 net148
*110 net149
*111 net150
*112 net151
*113 net152
*114 net125
*115 net153
*116 net154
*117 net155
*118 net156
*119 net157
*120 net158
*121 net159
*122 net160
*123 net126
*124 net127
*125 net128
*126 net129
*127 net130
*128 net131
*129 net132
*130 net161
*131 net171
*132 net172
*133 net173
*134 net174
*135 net175
*136 net176
*137 net177
*138 net178
*139 net179
*140 net180
*141 net162
*142 net181
*143 net182
*144 net183
*145 net184
*146 net185
*147 net186
*148 net187
*149 net188
*150 net189
*151 net190
*152 net163
*153 net191
*154 net192
*155 net193
*156 net194
*157 net195
*158 net196
*159 net197
*160 net198
*161 net164
*162 net165
*163 net166
*164 net167
*165 net168
*166 net169
*167 net170
*168 net199
*169 net200
*170 net201
*171 la_data_in[0]
*172 la_data_in[100]
*173 la_data_in[101]
*174 la_data_in[102]
*175 la_data_in[103]
*176 la_data_in[104]
*177 la_data_in[105]
*178 la_data_in[106]
*179 la_data_in[107]
*180 la_data_in[108]
*181 la_data_in[109]
*182 la_data_in[10]
*183 la_data_in[110]
*184 la_data_in[111]
*185 la_data_in[112]
*186 la_data_in[113]
*187 la_data_in[114]
*188 la_data_in[115]
*189 la_data_in[116]
*190 la_data_in[117]
*191 la_data_in[118]
*192 la_data_in[119]
*193 la_data_in[11]
*194 la_data_in[120]
*195 la_data_in[121]
*196 la_data_in[122]
*197 la_data_in[123]
*198 la_data_in[124]
*199 la_data_in[125]
*200 la_data_in[126]
*201 la_data_in[127]
*202 la_data_in[12]
*203 la_data_in[13]
*204 la_data_in[14]
*205 la_data_in[15]
*206 la_data_in[16]
*207 la_data_in[17]
*208 la_data_in[18]
*209 la_data_in[19]
*210 la_data_in[1]
*211 la_data_in[20]
*212 la_data_in[21]
*213 la_data_in[22]
*214 la_data_in[23]
*215 la_data_in[24]
*216 la_data_in[25]
*217 la_data_in[26]
*218 la_data_in[27]
*219 la_data_in[28]
*220 la_data_in[29]
*221 la_data_in[2]
*222 la_data_in[30]
*223 la_data_in[31]
*224 la_data_in[32]
*225 la_data_in[33]
*226 la_data_in[34]
*227 la_data_in[35]
*228 la_data_in[36]
*229 la_data_in[37]
*230 la_data_in[38]
*231 la_data_in[39]
*232 la_data_in[3]
*233 la_data_in[40]
*234 la_data_in[41]
*235 la_data_in[42]
*236 la_data_in[43]
*237 la_data_in[44]
*238 la_data_in[45]
*239 la_data_in[46]
*240 la_data_in[47]
*241 la_data_in[48]
*242 la_data_in[49]
*243 la_data_in[4]
*244 la_data_in[50]
*245 la_data_in[51]
*246 la_data_in[52]
*247 la_data_in[53]
*248 la_data_in[54]
*249 la_data_in[55]
*250 la_data_in[56]
*251 la_data_in[57]
*252 la_data_in[58]
*253 la_data_in[59]
*254 la_data_in[5]
*255 la_data_in[60]
*256 la_data_in[61]
*257 la_data_in[62]
*258 la_data_in[63]
*259 la_data_in[64]
*260 la_data_in[65]
*261 la_data_in[66]
*262 la_data_in[67]
*263 la_data_in[68]
*264 la_data_in[69]
*265 la_data_in[6]
*266 la_data_in[70]
*267 la_data_in[71]
*268 la_data_in[72]
*269 la_data_in[73]
*270 la_data_in[74]
*271 la_data_in[75]
*272 la_data_in[76]
*273 la_data_in[77]
*274 la_data_in[78]
*275 la_data_in[79]
*276 la_data_in[7]
*277 la_data_in[80]
*278 la_data_in[81]
*279 la_data_in[82]
*280 la_data_in[83]
*281 la_data_in[84]
*282 la_data_in[85]
*283 la_data_in[86]
*284 la_data_in[87]
*285 la_data_in[88]
*286 la_data_in[89]
*287 la_data_in[8]
*288 la_data_in[90]
*289 la_data_in[91]
*290 la_data_in[92]
*291 la_data_in[93]
*292 la_data_in[94]
*293 la_data_in[95]
*294 la_data_in[96]
*295 la_data_in[97]
*296 la_data_in[98]
*297 la_data_in[99]
*298 la_data_in[9]
*299 net202
*300 net302
*301 net303
*302 net304
*303 net305
*304 net306
*305 net307
*306 net308
*307 net309
*308 net310
*309 net311
*310 net212
*311 net312
*312 net313
*313 net314
*314 net315
*315 net316
*316 net317
*317 net318
*318 net319
*319 net320
*320 net321
*321 net213
*322 net322
*323 net323
*324 net324
*325 net325
*326 net326
*327 net327
*328 net328
*329 net329
*330 net214
*331 net215
*332 net216
*333 net217
*334 net218
*335 net219
*336 net220
*337 net221
*338 net203
*339 net222
*340 net223
*341 net224
*342 net225
*343 net226
*344 net227
*345 net228
*346 net229
*347 net230
*348 net231
*349 net204
*350 net232
*351 net233
*352 net234
*353 net235
*354 net236
*355 net237
*356 net238
*357 net239
*358 net240
*359 net241
*360 net205
*361 net242
*362 net243
*363 net244
*364 net245
*365 net246
*366 net247
*367 net248
*368 net249
*369 net250
*370 net251
*371 net206
*372 net252
*373 net253
*374 net254
*375 net255
*376 net256
*377 net257
*378 net258
*379 net259
*380 net260
*381 net261
*382 net207
*383 net262
*384 net263
*385 net264
*386 net265
*387 net266
*388 net267
*389 net268
*390 net269
*391 net270
*392 net271
*393 net208
*394 net272
*395 net273
*396 net274
*397 net275
*398 net276
*399 net277
*400 net278
*401 net279
*402 net280
*403 net281
*404 net209
*405 net282
*406 net283
*407 net284
*408 net285
*409 net286
*410 net287
*411 net288
*412 net289
*413 net290
*414 net291
*415 net210
*416 net292
*417 net293
*418 net294
*419 net295
*420 net296
*421 net297
*422 net298
*423 net299
*424 net300
*425 net301
*426 net211
*427 la_oenb[0]
*428 la_oenb[100]
*429 la_oenb[101]
*430 la_oenb[102]
*431 la_oenb[103]
*432 la_oenb[104]
*433 la_oenb[105]
*434 la_oenb[106]
*435 la_oenb[107]
*436 la_oenb[108]
*437 la_oenb[109]
*438 la_oenb[10]
*439 la_oenb[110]
*440 la_oenb[111]
*441 la_oenb[112]
*442 la_oenb[113]
*443 la_oenb[114]
*444 la_oenb[115]
*445 la_oenb[116]
*446 la_oenb[117]
*447 la_oenb[118]
*448 la_oenb[119]
*449 la_oenb[11]
*450 la_oenb[120]
*451 la_oenb[121]
*452 la_oenb[122]
*453 la_oenb[123]
*454 la_oenb[124]
*455 la_oenb[125]
*456 la_oenb[126]
*457 la_oenb[127]
*458 la_oenb[12]
*459 la_oenb[13]
*460 la_oenb[14]
*461 la_oenb[15]
*462 la_oenb[16]
*463 la_oenb[17]
*464 la_oenb[18]
*465 la_oenb[19]
*466 la_oenb[1]
*467 la_oenb[20]
*468 la_oenb[21]
*469 la_oenb[22]
*470 la_oenb[23]
*471 la_oenb[24]
*472 la_oenb[25]
*473 la_oenb[26]
*474 la_oenb[27]
*475 la_oenb[28]
*476 la_oenb[29]
*477 la_oenb[2]
*478 la_oenb[30]
*479 la_oenb[31]
*480 la_oenb[32]
*481 la_oenb[33]
*482 la_oenb[34]
*483 la_oenb[35]
*484 la_oenb[36]
*485 la_oenb[37]
*486 la_oenb[38]
*487 la_oenb[39]
*488 la_oenb[3]
*489 la_oenb[40]
*490 la_oenb[41]
*491 la_oenb[42]
*492 la_oenb[43]
*493 la_oenb[44]
*494 la_oenb[45]
*495 la_oenb[46]
*496 la_oenb[47]
*497 la_oenb[48]
*498 la_oenb[49]
*499 la_oenb[4]
*500 la_oenb[50]
*501 la_oenb[51]
*502 la_oenb[52]
*503 la_oenb[53]
*504 la_oenb[54]
*505 la_oenb[55]
*506 la_oenb[56]
*507 la_oenb[57]
*508 la_oenb[58]
*509 la_oenb[59]
*510 la_oenb[5]
*511 la_oenb[60]
*512 la_oenb[61]
*513 la_oenb[62]
*514 la_oenb[63]
*515 la_oenb[64]
*516 la_oenb[65]
*517 la_oenb[66]
*518 la_oenb[67]
*519 la_oenb[68]
*520 la_oenb[69]
*521 la_oenb[6]
*522 la_oenb[70]
*523 la_oenb[71]
*524 la_oenb[72]
*525 la_oenb[73]
*526 la_oenb[74]
*527 la_oenb[75]
*528 la_oenb[76]
*529 la_oenb[77]
*530 la_oenb[78]
*531 la_oenb[79]
*532 la_oenb[7]
*533 la_oenb[80]
*534 la_oenb[81]
*535 la_oenb[82]
*536 la_oenb[83]
*537 la_oenb[84]
*538 la_oenb[85]
*539 la_oenb[86]
*540 la_oenb[87]
*541 la_oenb[88]
*542 la_oenb[89]
*543 la_oenb[8]
*544 la_oenb[90]
*545 la_oenb[91]
*546 la_oenb[92]
*547 la_oenb[93]
*548 la_oenb[94]
*549 la_oenb[95]
*550 la_oenb[96]
*551 la_oenb[97]
*552 la_oenb[98]
*553 la_oenb[99]
*554 la_oenb[9]
*555 net330
*556 net331
*559 wb_clk_i
*560 wb_rst_i
*561 wbs_ack_o
*562 wbs_adr_i[0]
*563 wbs_adr_i[10]
*564 wbs_adr_i[11]
*565 wbs_adr_i[12]
*566 wbs_adr_i[13]
*567 wbs_adr_i[14]
*568 wbs_adr_i[15]
*569 wbs_adr_i[16]
*570 wbs_adr_i[17]
*571 wbs_adr_i[18]
*572 wbs_adr_i[19]
*573 wbs_adr_i[1]
*574 wbs_adr_i[20]
*575 wbs_adr_i[21]
*576 wbs_adr_i[22]
*577 wbs_adr_i[23]
*578 wbs_adr_i[24]
*579 wbs_adr_i[25]
*580 wbs_adr_i[26]
*581 wbs_adr_i[27]
*582 wbs_adr_i[28]
*583 wbs_adr_i[29]
*584 wbs_adr_i[2]
*585 wbs_adr_i[30]
*586 wbs_adr_i[31]
*587 wbs_adr_i[3]
*588 wbs_adr_i[4]
*589 wbs_adr_i[5]
*590 wbs_adr_i[6]
*591 wbs_adr_i[7]
*592 wbs_adr_i[8]
*593 wbs_adr_i[9]
*594 wbs_cyc_i
*595 wbs_dat_i[0]
*596 wbs_dat_i[10]
*597 wbs_dat_i[11]
*598 wbs_dat_i[12]
*599 wbs_dat_i[13]
*600 wbs_dat_i[14]
*601 wbs_dat_i[15]
*602 wbs_dat_i[16]
*603 wbs_dat_i[17]
*604 wbs_dat_i[18]
*605 wbs_dat_i[19]
*606 wbs_dat_i[1]
*607 wbs_dat_i[20]
*608 wbs_dat_i[21]
*609 wbs_dat_i[22]
*610 wbs_dat_i[23]
*611 wbs_dat_i[24]
*612 wbs_dat_i[25]
*613 wbs_dat_i[26]
*614 wbs_dat_i[27]
*615 wbs_dat_i[28]
*616 wbs_dat_i[29]
*617 wbs_dat_i[2]
*618 wbs_dat_i[30]
*619 wbs_dat_i[31]
*620 wbs_dat_i[3]
*621 wbs_dat_i[4]
*622 wbs_dat_i[5]
*623 wbs_dat_i[6]
*624 wbs_dat_i[7]
*625 wbs_dat_i[8]
*626 wbs_dat_i[9]
*627 wbs_dat_o[0]
*628 wbs_dat_o[10]
*629 wbs_dat_o[11]
*630 net332
*631 net333
*632 net334
*633 net335
*634 net336
*635 net337
*636 net338
*637 net339
*638 wbs_dat_o[1]
*639 net340
*640 net341
*641 net342
*642 net343
*643 net344
*644 net345
*645 net346
*646 net347
*647 net348
*648 net349
*649 wbs_dat_o[2]
*650 net350
*651 net351
*652 wbs_dat_o[3]
*653 wbs_dat_o[4]
*654 wbs_dat_o[5]
*655 wbs_dat_o[6]
*656 wbs_dat_o[7]
*657 wbs_dat_o[8]
*658 wbs_dat_o[9]
*659 wbs_sel_i[0]
*660 wbs_sel_i[1]
*661 wbs_sel_i[2]
*662 wbs_sel_i[3]
*663 wbs_stb_i
*664 wbs_we_i
*665 _0000_
*666 _0001_
*667 _0002_
*668 _0003_
*669 _0004_
*670 _0005_
*671 _0006_
*672 _0007_
*673 _0008_
*674 _0009_
*675 _0010_
*676 _0011_
*677 _0012_
*678 _0013_
*679 _0014_
*680 _0015_
*681 _0016_
*682 _0017_
*683 _0018_
*684 _0019_
*685 _0020_
*686 _0021_
*687 _0022_
*688 _0023_
*689 _0024_
*690 _0025_
*691 _0026_
*692 _0027_
*693 _0028_
*694 _0029_
*695 _0030_
*696 _0031_
*697 _0032_
*698 _0033_
*699 _0034_
*700 _0035_
*701 _0036_
*702 _0037_
*703 _0038_
*704 _0039_
*705 _0040_
*706 _0041_
*707 _0042_
*708 _0043_
*709 _0044_
*710 _0045_
*711 _0046_
*712 _0047_
*713 _0048_
*714 _0049_
*715 _0050_
*716 _0051_
*717 _0052_
*718 _0053_
*719 _0054_
*720 _0055_
*721 _0056_
*722 _0057_
*723 _0058_
*724 _0059_
*725 _0060_
*726 _0061_
*727 _0062_
*728 _0063_
*729 _0064_
*730 _0065_
*731 _0066_
*732 _0067_
*733 _0068_
*734 _0069_
*735 _0070_
*736 _0071_
*737 _0072_
*738 _0073_
*739 _0074_
*740 _0075_
*741 _0076_
*742 _0077_
*743 _0078_
*744 _0079_
*745 _0080_
*746 _0081_
*747 _0082_
*748 _0083_
*749 _0084_
*750 _0085_
*751 _0086_
*752 _0087_
*753 _0088_
*754 _0089_
*755 _0090_
*756 _0091_
*757 _0092_
*758 _0093_
*759 _0094_
*760 _0095_
*761 _0096_
*762 _0097_
*763 _0098_
*764 _0099_
*765 _0100_
*766 _0101_
*767 _0102_
*768 _0103_
*769 _0104_
*770 _0105_
*771 _0106_
*772 _0107_
*773 _0108_
*774 _0109_
*775 _0110_
*776 _0111_
*777 _0112_
*778 _0113_
*779 _0114_
*780 _0115_
*781 _0116_
*782 _0117_
*783 _0118_
*784 _0119_
*785 _0120_
*786 _0121_
*787 _0122_
*788 _0123_
*789 _0124_
*790 _0125_
*791 _0126_
*792 _0127_
*793 _0128_
*794 _0129_
*795 _0130_
*796 _0131_
*797 _0132_
*798 _0133_
*799 _0134_
*800 _0135_
*801 _0136_
*802 _0137_
*803 _0138_
*804 _0139_
*805 _0140_
*806 _0141_
*807 _0142_
*808 _0143_
*809 _0144_
*810 _0145_
*811 _0146_
*812 _0147_
*813 _0148_
*814 _0149_
*815 _0150_
*816 _0151_
*817 _0152_
*818 _0153_
*819 _0154_
*820 _0155_
*821 _0156_
*822 _0157_
*823 _0158_
*824 _0159_
*825 _0160_
*826 _0161_
*827 _0162_
*828 _0163_
*829 _0164_
*830 _0165_
*831 _0166_
*832 _0167_
*833 _0168_
*834 _0169_
*835 _0170_
*836 _0171_
*837 _0172_
*838 _0173_
*839 _0174_
*840 _0175_
*841 _0176_
*842 _0177_
*843 _0178_
*844 _0179_
*845 _0180_
*846 _0181_
*847 _0182_
*848 _0183_
*849 _0184_
*850 _0185_
*851 _0186_
*852 _0187_
*853 _0188_
*854 _0189_
*855 _0190_
*856 _0191_
*857 _0192_
*858 _0193_
*859 _0194_
*860 _0195_
*861 _0196_
*862 _0197_
*863 _0198_
*864 _0199_
*865 _0200_
*866 _0201_
*867 _0202_
*868 _0203_
*869 _0204_
*870 _0205_
*871 _0206_
*872 _0207_
*873 _0208_
*874 _0209_
*875 _0210_
*876 _0211_
*877 _0212_
*878 _0213_
*879 _0214_
*880 _0215_
*881 _0216_
*882 _0217_
*883 _0218_
*884 _0219_
*885 _0220_
*886 _0221_
*887 _0222_
*888 _0223_
*889 _0224_
*890 _0225_
*891 _0226_
*892 _0227_
*893 _0228_
*894 _0229_
*895 _0230_
*896 _0231_
*897 _0232_
*898 _0233_
*899 _0234_
*900 _0235_
*901 _0236_
*902 _0237_
*903 _0238_
*904 _0239_
*905 _0240_
*906 _0241_
*907 _0242_
*908 _0243_
*909 _0244_
*910 _0245_
*911 _0246_
*912 _0247_
*913 _0248_
*914 _0249_
*915 _0250_
*916 _0251_
*917 _0252_
*918 _0253_
*919 _0254_
*920 _0255_
*921 _0256_
*922 _0257_
*923 _0258_
*924 _0259_
*925 _0260_
*926 _0261_
*927 _0262_
*928 _0263_
*929 _0264_
*930 _0265_
*931 _0266_
*932 _0267_
*933 _0268_
*934 _0269_
*935 _0270_
*936 _0271_
*937 _0272_
*938 _0273_
*939 _0274_
*940 _0275_
*941 _0276_
*942 _0277_
*943 _0278_
*944 _0279_
*945 _0280_
*946 _0281_
*947 _0282_
*948 _0283_
*949 _0284_
*950 _0285_
*951 _0286_
*952 _0287_
*953 _0288_
*954 _0289_
*955 _0290_
*956 _0291_
*957 _0292_
*958 _0293_
*959 _0294_
*960 _0295_
*961 _0296_
*962 _0297_
*963 _0298_
*964 _0299_
*965 _0300_
*966 _0301_
*967 _0302_
*968 _0303_
*969 _0304_
*970 _0305_
*971 _0306_
*972 _0307_
*973 _0308_
*974 _0309_
*975 _0310_
*976 _0311_
*977 _0312_
*978 _0313_
*979 _0314_
*980 _0315_
*981 _0316_
*982 _0317_
*983 _0318_
*984 _0319_
*985 _0320_
*986 _0321_
*987 _0322_
*988 _0323_
*989 _0324_
*990 _0325_
*991 _0326_
*992 _0327_
*993 _0328_
*994 _0329_
*995 _0330_
*996 _0331_
*997 _0332_
*998 _0333_
*999 _0334_
*1000 _0335_
*1001 _0336_
*1002 _0337_
*1003 _0338_
*1004 _0339_
*1005 _0340_
*1006 _0341_
*1007 _0342_
*1008 _0343_
*1009 _0344_
*1010 _0345_
*1011 _0346_
*1012 _0347_
*1013 _0348_
*1014 _0349_
*1015 _0350_
*1016 _0351_
*1017 _0352_
*1018 _0353_
*1019 _0354_
*1020 _0355_
*1021 _0356_
*1022 _0357_
*1023 _0358_
*1024 _0359_
*1025 _0360_
*1026 _0361_
*1027 _0362_
*1028 _0363_
*1029 _0364_
*1030 _0365_
*1031 _0366_
*1032 _0367_
*1033 _0368_
*1034 _0369_
*1035 _0370_
*1036 _0371_
*1037 _0372_
*1038 _0373_
*1039 _0374_
*1040 _0375_
*1041 _0376_
*1042 _0377_
*1043 _0378_
*1044 _0379_
*1045 _0380_
*1046 _0381_
*1047 _0382_
*1048 _0383_
*1049 _0384_
*1050 _0385_
*1051 _0386_
*1052 _0387_
*1053 _0388_
*1054 _0389_
*1055 _0390_
*1056 _0391_
*1057 _0392_
*1058 _0393_
*1059 _0394_
*1060 _0395_
*1061 _0396_
*1062 _0397_
*1063 _0398_
*1064 _0399_
*1065 _0400_
*1066 _0401_
*1067 _0402_
*1068 _0403_
*1069 _0404_
*1070 _0405_
*1071 _0406_
*1072 _0407_
*1073 _0408_
*1074 _0409_
*1075 _0410_
*1076 _0411_
*1077 _0412_
*1078 _0413_
*1079 _0414_
*1080 _0415_
*1081 _0416_
*1082 _0417_
*1083 _0418_
*1084 _0419_
*1085 _0420_
*1086 _0421_
*1087 _0422_
*1088 _0423_
*1089 _0424_
*1090 _0425_
*1091 _0426_
*1092 _0427_
*1093 _0428_
*1094 _0429_
*1095 _0430_
*1096 _0431_
*1097 _0432_
*1098 _0433_
*1099 _0434_
*1100 _0435_
*1101 _0436_
*1102 _0437_
*1103 _0438_
*1104 _0439_
*1105 _0440_
*1106 _0441_
*1107 _0442_
*1108 _0443_
*1109 _0444_
*1110 _0445_
*1111 _0446_
*1112 _0447_
*1113 _0448_
*1114 _0449_
*1115 _0450_
*1116 _0451_
*1117 _0452_
*1118 _0453_
*1119 _0454_
*1120 _0455_
*1121 _0456_
*1122 _0457_
*1123 _0458_
*1124 _0459_
*1125 _0460_
*1126 _0461_
*1127 _0462_
*1128 _0463_
*1129 _0464_
*1130 _0465_
*1131 _0466_
*1132 _0467_
*1133 _0468_
*1134 _0469_
*1135 _0470_
*1136 _0471_
*1137 _0472_
*1138 _0473_
*1139 _0474_
*1140 _0475_
*1141 _0476_
*1142 _0477_
*1143 _0478_
*1144 _0479_
*1145 _0480_
*1146 _0481_
*1147 _0482_
*1148 _0483_
*1149 _0484_
*1150 _0485_
*1151 _0486_
*1152 _0487_
*1153 _0488_
*1154 _0489_
*1155 _0490_
*1156 _0491_
*1157 _0492_
*1158 _0493_
*1159 _0494_
*1160 _0495_
*1161 _0496_
*1162 _0497_
*1163 _0498_
*1164 _0499_
*1165 _0500_
*1166 _0501_
*1167 _0502_
*1168 _0503_
*1169 _0504_
*1170 _0505_
*1171 _0506_
*1172 _0507_
*1173 _0508_
*1174 _0509_
*1175 _0510_
*1176 _0511_
*1177 _0512_
*1178 _0513_
*1179 _0514_
*1180 _0515_
*1181 _0516_
*1182 _0517_
*1183 _0518_
*1184 _0519_
*1185 _0520_
*1186 _0521_
*1187 _0522_
*1188 _0523_
*1189 _0524_
*1190 _0525_
*1191 _0526_
*1192 _0527_
*1193 _0528_
*1194 _0529_
*1195 _0530_
*1196 _0531_
*1197 _0532_
*1198 _0533_
*1199 _0534_
*1200 _0535_
*1201 _0536_
*1202 _0537_
*1203 _0538_
*1204 _0539_
*1205 _0540_
*1206 _0541_
*1207 _0542_
*1208 _0543_
*1209 _0544_
*1210 _0545_
*1211 _0546_
*1212 _0547_
*1213 _0548_
*1214 _0549_
*1215 _0550_
*1216 _0551_
*1217 _0552_
*1218 _0553_
*1219 _0554_
*1220 _0555_
*1221 _0556_
*1222 _0557_
*1223 _0558_
*1224 _0559_
*1225 _0560_
*1226 _0561_
*1227 _0562_
*1228 _0563_
*1229 _0564_
*1230 _0565_
*1231 _0566_
*1232 _0567_
*1233 _0568_
*1234 _0569_
*1235 _0570_
*1236 _0571_
*1237 _0572_
*1238 _0573_
*1239 _0574_
*1240 _0575_
*1241 _0576_
*1242 _0577_
*1243 _0578_
*1244 _0579_
*1245 _0580_
*1246 _0581_
*1247 _0582_
*1248 _0583_
*1249 _0584_
*1250 _0585_
*1251 _0586_
*1252 _0587_
*1253 _0588_
*1254 _0589_
*1255 _0590_
*1256 _0591_
*1257 _0592_
*1258 _0593_
*1259 _0594_
*1260 _0595_
*1261 _0596_
*1262 _0597_
*1263 _0598_
*1264 _0599_
*1265 _0600_
*1266 _0601_
*1267 _0602_
*1268 _0603_
*1269 _0604_
*1270 _0605_
*1271 _0606_
*1272 _0607_
*1273 _0608_
*1274 _0609_
*1275 _0610_
*1276 _0611_
*1277 _0612_
*1278 _0613_
*1279 _0614_
*1280 _0615_
*1281 _0616_
*1282 _0617_
*1283 _0618_
*1284 _0619_
*1285 _0620_
*1286 _0621_
*1287 _0622_
*1288 _0623_
*1289 _0624_
*1290 _0625_
*1291 _0626_
*1292 _0627_
*1293 _0628_
*1294 _0629_
*1295 _0630_
*1296 _0631_
*1297 _0632_
*1298 _0633_
*1299 _0634_
*1300 _0635_
*1301 _0636_
*1302 _0637_
*1303 _0638_
*1304 _0639_
*1305 _0640_
*1306 _0641_
*1307 _0642_
*1308 _0643_
*1309 _0644_
*1310 _0645_
*1311 _0646_
*1312 _0647_
*1313 _0648_
*1314 _0649_
*1315 _0650_
*1316 _0651_
*1317 _0652_
*1318 _0653_
*1319 _0654_
*1320 _0655_
*1321 _0656_
*1322 _0657_
*1323 _0658_
*1324 _0659_
*1325 _0660_
*1326 _0661_
*1327 _0662_
*1328 _0663_
*1329 _0664_
*1330 _0665_
*1331 _0666_
*1332 _0667_
*1333 _0668_
*1334 _0669_
*1335 _0670_
*1336 _0671_
*1337 _0672_
*1338 _0673_
*1339 _0674_
*1340 _0675_
*1341 _0676_
*1342 _0677_
*1343 _0678_
*1344 _0679_
*1345 _0680_
*1346 _0681_
*1347 _0682_
*1348 _0683_
*1349 _0684_
*1350 _0685_
*1351 _0686_
*1352 _0687_
*1353 _0688_
*1354 _0689_
*1355 _0690_
*1356 _0691_
*1357 _0692_
*1358 _0693_
*1359 _0694_
*1360 _0695_
*1361 _0696_
*1362 _0697_
*1363 _0698_
*1364 _0699_
*1365 _0700_
*1366 _0701_
*1367 _0702_
*1368 _0703_
*1369 _0704_
*1370 _0705_
*1371 _0706_
*1372 _0707_
*1373 _0708_
*1374 _0709_
*1375 _0710_
*1376 _0711_
*1377 _0712_
*1378 _0713_
*1379 _0714_
*1380 _0715_
*1381 _0716_
*1382 _0717_
*1383 _0718_
*1384 _0719_
*1385 _0720_
*1386 _0721_
*1387 _0722_
*1388 _0723_
*1389 _0724_
*1390 _0725_
*1391 _0726_
*1392 _0727_
*1393 _0728_
*1394 _0729_
*1395 _0730_
*1396 _0731_
*1397 _0732_
*1398 _0733_
*1399 _0734_
*1400 _0735_
*1401 _0736_
*1402 _0737_
*1403 _0738_
*1404 _0739_
*1405 _0740_
*1406 _0741_
*1407 _0742_
*1408 _0743_
*1409 _0744_
*1410 _0745_
*1411 _0746_
*1412 _0747_
*1413 _0748_
*1414 _0749_
*1415 _0750_
*1416 _0751_
*1417 _0752_
*1418 _0753_
*1419 _0754_
*1420 _0755_
*1421 _0756_
*1422 _0757_
*1423 _0758_
*1424 _0759_
*1425 _0760_
*1426 _0761_
*1427 _0762_
*1428 _0763_
*1429 _0764_
*1430 _0765_
*1431 _0766_
*1432 _0767_
*1433 _0768_
*1434 _0769_
*1435 _0770_
*1436 _0771_
*1437 _0772_
*1438 _0773_
*1439 _0774_
*1440 _0775_
*1441 _0776_
*1442 _0777_
*1443 _0778_
*1444 _0779_
*1445 _0780_
*1446 _0781_
*1447 _0782_
*1448 _0783_
*1449 _0784_
*1450 _0785_
*1451 _0786_
*1452 _0787_
*1453 _0788_
*1454 _0789_
*1455 _0790_
*1456 _0791_
*1457 _0792_
*1458 _0793_
*1459 _0794_
*1460 _0795_
*1461 _0796_
*1462 _0797_
*1463 _0798_
*1464 _0799_
*1465 _0800_
*1466 _0801_
*1467 _0802_
*1468 _0803_
*1469 _0804_
*1470 _0805_
*1471 _0806_
*1472 _0807_
*1473 _0808_
*1474 _0809_
*1475 _0810_
*1476 _0811_
*1477 _0812_
*1478 _0813_
*1479 _0814_
*1480 _0815_
*1481 _0816_
*1482 _0817_
*1483 _0818_
*1484 _0819_
*1485 _0820_
*1486 _0821_
*1487 _0822_
*1488 _0823_
*1489 _0824_
*1490 _0825_
*1491 _0826_
*1492 _0827_
*1493 _0828_
*1494 _0829_
*1495 _0830_
*1496 _0831_
*1497 _0832_
*1498 _0833_
*1499 _0834_
*1500 _0835_
*1501 _0836_
*1502 _0837_
*1503 _0838_
*1504 _0839_
*1505 _0840_
*1506 _0841_
*1507 _0842_
*1508 _0843_
*1509 _0844_
*1510 _0845_
*1511 _0846_
*1512 _0847_
*1513 _0848_
*1514 _0849_
*1515 _0850_
*1516 _0851_
*1517 _0852_
*1518 _0853_
*1519 _0854_
*1520 clknet_0_wb_clk_i
*1521 clknet_2_0__leaf_wb_clk_i
*1522 clknet_2_1__leaf_wb_clk_i
*1523 clknet_2_2__leaf_wb_clk_i
*1524 clknet_2_3__leaf_wb_clk_i
*1525 clknet_leaf_0_wb_clk_i
*1526 clknet_leaf_10_wb_clk_i
*1527 clknet_leaf_11_wb_clk_i
*1528 clknet_leaf_12_wb_clk_i
*1529 clknet_leaf_13_wb_clk_i
*1530 clknet_leaf_14_wb_clk_i
*1531 clknet_leaf_15_wb_clk_i
*1532 clknet_leaf_16_wb_clk_i
*1533 clknet_leaf_17_wb_clk_i
*1534 clknet_leaf_18_wb_clk_i
*1535 clknet_leaf_19_wb_clk_i
*1536 clknet_leaf_1_wb_clk_i
*1537 clknet_leaf_20_wb_clk_i
*1538 clknet_leaf_21_wb_clk_i
*1539 clknet_leaf_22_wb_clk_i
*1540 clknet_leaf_23_wb_clk_i
*1541 clknet_leaf_24_wb_clk_i
*1542 clknet_leaf_25_wb_clk_i
*1543 clknet_leaf_26_wb_clk_i
*1544 clknet_leaf_27_wb_clk_i
*1545 clknet_leaf_28_wb_clk_i
*1546 clknet_leaf_29_wb_clk_i
*1547 clknet_leaf_2_wb_clk_i
*1548 clknet_leaf_30_wb_clk_i
*1549 clknet_leaf_31_wb_clk_i
*1550 clknet_leaf_3_wb_clk_i
*1551 clknet_leaf_4_wb_clk_i
*1552 clknet_leaf_5_wb_clk_i
*1553 clknet_leaf_6_wb_clk_i
*1554 clknet_leaf_7_wb_clk_i
*1555 clknet_leaf_8_wb_clk_i
*1556 clknet_leaf_9_wb_clk_i
*1557 net1
*1558 net10
*1559 net100
*1560 net101
*1561 net102
*1562 net11
*1563 net12
*1564 net13
*1565 net14
*1566 net15
*1567 net16
*1568 net17
*1569 net18
*1570 net19
*1571 net2
*1572 net20
*1573 net21
*1574 net22
*1575 net23
*1576 net24
*1577 net25
*1578 net26
*1579 net27
*1580 net28
*1581 net29
*1582 net3
*1583 net30
*1584 net31
*1585 net32
*1586 net33
*1587 net34
*1588 net35
*1589 net36
*1590 net37
*1591 net38
*1592 net39
*1593 net4
*1594 net40
*1595 net41
*1596 net42
*1597 net43
*1598 net44
*1599 net45
*1600 net46
*1601 net47
*1602 net48
*1603 net49
*1604 net5
*1605 net50
*1606 net51
*1607 net52
*1608 net53
*1609 net54
*1610 net55
*1611 net56
*1612 net57
*1613 net58
*1614 net59
*1615 net6
*1616 net60
*1617 net61
*1618 net62
*1619 net63
*1620 net64
*1621 net65
*1622 net66
*1623 net67
*1624 net68
*1625 net69
*1626 net7
*1627 net70
*1628 net71
*1629 net72
*1630 net73
*1631 net74
*1632 net75
*1633 net76
*1634 net77
*1635 net78
*1636 net79
*1637 net8
*1638 net80
*1639 net81
*1640 net82
*1641 net83
*1642 net84
*1643 net85
*1644 net86
*1645 net87
*1646 net88
*1647 net89
*1648 net9
*1649 net90
*1650 net91
*1651 net92
*1652 net93
*1653 net94
*1654 net95
*1655 net96
*1656 net97
*1657 net98
*1658 net99
*1659 rlbp_inst0\.count\[0\]
*1660 rlbp_inst0\.count\[10\]
*1661 rlbp_inst0\.count\[11\]
*1662 rlbp_inst0\.count\[1\]
*1663 rlbp_inst0\.count\[2\]
*1664 rlbp_inst0\.count\[3\]
*1665 rlbp_inst0\.count\[4\]
*1666 rlbp_inst0\.count\[5\]
*1667 rlbp_inst0\.count\[6\]
*1668 rlbp_inst0\.count\[7\]
*1669 rlbp_inst0\.count\[8\]
*1670 rlbp_inst0\.count\[9\]
*1671 rlbp_inst0\.inst10\.time_down_sh_cmp\[0\]
*1672 rlbp_inst0\.inst10\.time_down_sh_cmp\[10\]
*1673 rlbp_inst0\.inst10\.time_down_sh_cmp\[11\]
*1674 rlbp_inst0\.inst10\.time_down_sh_cmp\[1\]
*1675 rlbp_inst0\.inst10\.time_down_sh_cmp\[2\]
*1676 rlbp_inst0\.inst10\.time_down_sh_cmp\[3\]
*1677 rlbp_inst0\.inst10\.time_down_sh_cmp\[4\]
*1678 rlbp_inst0\.inst10\.time_down_sh_cmp\[5\]
*1679 rlbp_inst0\.inst10\.time_down_sh_cmp\[6\]
*1680 rlbp_inst0\.inst10\.time_down_sh_cmp\[7\]
*1681 rlbp_inst0\.inst10\.time_down_sh_cmp\[8\]
*1682 rlbp_inst0\.inst10\.time_down_sh_cmp\[9\]
*1683 rlbp_inst0\.inst10\.time_up_sh_cmp\[0\]
*1684 rlbp_inst0\.inst10\.time_up_sh_cmp\[10\]
*1685 rlbp_inst0\.inst10\.time_up_sh_cmp\[11\]
*1686 rlbp_inst0\.inst10\.time_up_sh_cmp\[1\]
*1687 rlbp_inst0\.inst10\.time_up_sh_cmp\[2\]
*1688 rlbp_inst0\.inst10\.time_up_sh_cmp\[3\]
*1689 rlbp_inst0\.inst10\.time_up_sh_cmp\[4\]
*1690 rlbp_inst0\.inst10\.time_up_sh_cmp\[5\]
*1691 rlbp_inst0\.inst10\.time_up_sh_cmp\[6\]
*1692 rlbp_inst0\.inst10\.time_up_sh_cmp\[7\]
*1693 rlbp_inst0\.inst10\.time_up_sh_cmp\[8\]
*1694 rlbp_inst0\.inst10\.time_up_sh_cmp\[9\]
*1695 rlbp_inst0\.inst11\.time_down_sh_reset\[0\]
*1696 rlbp_inst0\.inst11\.time_down_sh_reset\[10\]
*1697 rlbp_inst0\.inst11\.time_down_sh_reset\[11\]
*1698 rlbp_inst0\.inst11\.time_down_sh_reset\[1\]
*1699 rlbp_inst0\.inst11\.time_down_sh_reset\[2\]
*1700 rlbp_inst0\.inst11\.time_down_sh_reset\[3\]
*1701 rlbp_inst0\.inst11\.time_down_sh_reset\[4\]
*1702 rlbp_inst0\.inst11\.time_down_sh_reset\[5\]
*1703 rlbp_inst0\.inst11\.time_down_sh_reset\[6\]
*1704 rlbp_inst0\.inst11\.time_down_sh_reset\[7\]
*1705 rlbp_inst0\.inst11\.time_down_sh_reset\[8\]
*1706 rlbp_inst0\.inst11\.time_down_sh_reset\[9\]
*1707 rlbp_inst0\.inst11\.time_up_sh_reset\[0\]
*1708 rlbp_inst0\.inst11\.time_up_sh_reset\[10\]
*1709 rlbp_inst0\.inst11\.time_up_sh_reset\[11\]
*1710 rlbp_inst0\.inst11\.time_up_sh_reset\[1\]
*1711 rlbp_inst0\.inst11\.time_up_sh_reset\[2\]
*1712 rlbp_inst0\.inst11\.time_up_sh_reset\[3\]
*1713 rlbp_inst0\.inst11\.time_up_sh_reset\[4\]
*1714 rlbp_inst0\.inst11\.time_up_sh_reset\[5\]
*1715 rlbp_inst0\.inst11\.time_up_sh_reset\[6\]
*1716 rlbp_inst0\.inst11\.time_up_sh_reset\[7\]
*1717 rlbp_inst0\.inst11\.time_up_sh_reset\[8\]
*1718 rlbp_inst0\.inst11\.time_up_sh_reset\[9\]
*1719 rlbp_inst0\.inst12\.time_down_counter_reset_out\[0\]
*1720 rlbp_inst0\.inst12\.time_down_counter_reset_out\[10\]
*1721 rlbp_inst0\.inst12\.time_down_counter_reset_out\[11\]
*1722 rlbp_inst0\.inst12\.time_down_counter_reset_out\[1\]
*1723 rlbp_inst0\.inst12\.time_down_counter_reset_out\[2\]
*1724 rlbp_inst0\.inst12\.time_down_counter_reset_out\[3\]
*1725 rlbp_inst0\.inst12\.time_down_counter_reset_out\[4\]
*1726 rlbp_inst0\.inst12\.time_down_counter_reset_out\[5\]
*1727 rlbp_inst0\.inst12\.time_down_counter_reset_out\[6\]
*1728 rlbp_inst0\.inst12\.time_down_counter_reset_out\[7\]
*1729 rlbp_inst0\.inst12\.time_down_counter_reset_out\[8\]
*1730 rlbp_inst0\.inst12\.time_down_counter_reset_out\[9\]
*1731 rlbp_inst0\.inst12\.time_up_counter_reset_out\[0\]
*1732 rlbp_inst0\.inst12\.time_up_counter_reset_out\[10\]
*1733 rlbp_inst0\.inst12\.time_up_counter_reset_out\[11\]
*1734 rlbp_inst0\.inst12\.time_up_counter_reset_out\[1\]
*1735 rlbp_inst0\.inst12\.time_up_counter_reset_out\[2\]
*1736 rlbp_inst0\.inst12\.time_up_counter_reset_out\[3\]
*1737 rlbp_inst0\.inst12\.time_up_counter_reset_out\[4\]
*1738 rlbp_inst0\.inst12\.time_up_counter_reset_out\[5\]
*1739 rlbp_inst0\.inst12\.time_up_counter_reset_out\[6\]
*1740 rlbp_inst0\.inst12\.time_up_counter_reset_out\[7\]
*1741 rlbp_inst0\.inst12\.time_up_counter_reset_out\[8\]
*1742 rlbp_inst0\.inst12\.time_up_counter_reset_out\[9\]
*1743 rlbp_inst0\.inst5\.time_down_vd1\[0\]
*1744 rlbp_inst0\.inst5\.time_down_vd1\[10\]
*1745 rlbp_inst0\.inst5\.time_down_vd1\[11\]
*1746 rlbp_inst0\.inst5\.time_down_vd1\[1\]
*1747 rlbp_inst0\.inst5\.time_down_vd1\[2\]
*1748 rlbp_inst0\.inst5\.time_down_vd1\[3\]
*1749 rlbp_inst0\.inst5\.time_down_vd1\[4\]
*1750 rlbp_inst0\.inst5\.time_down_vd1\[5\]
*1751 rlbp_inst0\.inst5\.time_down_vd1\[6\]
*1752 rlbp_inst0\.inst5\.time_down_vd1\[7\]
*1753 rlbp_inst0\.inst5\.time_down_vd1\[8\]
*1754 rlbp_inst0\.inst5\.time_down_vd1\[9\]
*1755 rlbp_inst0\.inst5\.time_up_vd1\[0\]
*1756 rlbp_inst0\.inst5\.time_up_vd1\[10\]
*1757 rlbp_inst0\.inst5\.time_up_vd1\[11\]
*1758 rlbp_inst0\.inst5\.time_up_vd1\[1\]
*1759 rlbp_inst0\.inst5\.time_up_vd1\[2\]
*1760 rlbp_inst0\.inst5\.time_up_vd1\[3\]
*1761 rlbp_inst0\.inst5\.time_up_vd1\[4\]
*1762 rlbp_inst0\.inst5\.time_up_vd1\[5\]
*1763 rlbp_inst0\.inst5\.time_up_vd1\[6\]
*1764 rlbp_inst0\.inst5\.time_up_vd1\[7\]
*1765 rlbp_inst0\.inst5\.time_up_vd1\[8\]
*1766 rlbp_inst0\.inst5\.time_up_vd1\[9\]
*1767 rlbp_inst0\.inst6\.time_down_vd2\[0\]
*1768 rlbp_inst0\.inst6\.time_down_vd2\[10\]
*1769 rlbp_inst0\.inst6\.time_down_vd2\[11\]
*1770 rlbp_inst0\.inst6\.time_down_vd2\[1\]
*1771 rlbp_inst0\.inst6\.time_down_vd2\[2\]
*1772 rlbp_inst0\.inst6\.time_down_vd2\[3\]
*1773 rlbp_inst0\.inst6\.time_down_vd2\[4\]
*1774 rlbp_inst0\.inst6\.time_down_vd2\[5\]
*1775 rlbp_inst0\.inst6\.time_down_vd2\[6\]
*1776 rlbp_inst0\.inst6\.time_down_vd2\[7\]
*1777 rlbp_inst0\.inst6\.time_down_vd2\[8\]
*1778 rlbp_inst0\.inst6\.time_down_vd2\[9\]
*1779 rlbp_inst0\.inst6\.time_up_vd2\[0\]
*1780 rlbp_inst0\.inst6\.time_up_vd2\[10\]
*1781 rlbp_inst0\.inst6\.time_up_vd2\[11\]
*1782 rlbp_inst0\.inst6\.time_up_vd2\[1\]
*1783 rlbp_inst0\.inst6\.time_up_vd2\[2\]
*1784 rlbp_inst0\.inst6\.time_up_vd2\[3\]
*1785 rlbp_inst0\.inst6\.time_up_vd2\[4\]
*1786 rlbp_inst0\.inst6\.time_up_vd2\[5\]
*1787 rlbp_inst0\.inst6\.time_up_vd2\[6\]
*1788 rlbp_inst0\.inst6\.time_up_vd2\[7\]
*1789 rlbp_inst0\.inst6\.time_up_vd2\[8\]
*1790 rlbp_inst0\.inst6\.time_up_vd2\[9\]
*1791 rlbp_inst0\.inst7\.time_down_sw1\[0\]
*1792 rlbp_inst0\.inst7\.time_down_sw1\[10\]
*1793 rlbp_inst0\.inst7\.time_down_sw1\[11\]
*1794 rlbp_inst0\.inst7\.time_down_sw1\[1\]
*1795 rlbp_inst0\.inst7\.time_down_sw1\[2\]
*1796 rlbp_inst0\.inst7\.time_down_sw1\[3\]