*SPEF "ieee 1481-1999"
*DESIGN "rlbp_macro"
*DATE "11:11:11 Fri 11 11, 1111"
*VENDOR "OpenRCX"
*PROGRAM "Parallel Extraction"
*VERSION "1.0"
*DESIGN_FLOW "NAME_SCOPE LOCAL" "PIN_CAP NONE"
*DIVIDER /
*DELIMITER :
*BUS_DELIMITER []
*T_UNIT 1 NS
*C_UNIT 1 PF
*R_UNIT 1 OHM
*L_UNIT 1 HENRY

*NAME_MAP
*1 net43
*2 net44
*3 net45
*4 net46
*5 net47
*6 net48
*7 net49
*8 net50
*9 net51
*10 net52
*11 net53
*12 net54
*13 net55
*14 net56
*15 net57
*16 net58
*17 net59
*18 net60
*19 net61
*20 net62
*21 net63
*22 net64
*23 net65
*24 net66
*25 net67
*26 net68
*27 net69
*28 net70
*29 net71
*30 net72
*31 net73
*32 net74
*33 net75
*34 net76
*35 net77
*36 net78
*37 net79
*38 net80
*39 net81
*40 net82
*41 net83
*42 io_in[0]
*43 io_in[10]
*44 io_in[11]
*45 io_in[12]
*46 io_in[13]
*47 io_in[14]
*48 io_in[15]
*49 io_in[16]
*50 io_in[17]
*51 io_in[18]
*52 io_in[19]
*53 io_in[1]
*54 io_in[20]
*55 io_in[21]
*56 io_in[22]
*57 io_in[23]
*58 io_in[24]
*59 io_in[25]
*60 io_in[26]
*61 io_in[27]
*62 io_in[28]
*63 io_in[29]
*64 io_in[2]
*65 io_in[30]
*66 io_in[31]
*67 io_in[32]
*68 io_in[33]
*69 io_in[34]
*70 io_in[35]
*71 io_in[36]
*72 io_in[37]
*73 io_in[3]
*74 io_in[4]
*75 io_in[5]
*76 io_in[6]
*77 io_in[7]
*78 io_in[8]
*79 io_in[9]
*80 net84
*81 net94
*82 net95
*83 net96
*84 net97
*85 net98
*86 net99
*87 net100
*88 net101
*89 net102
*90 net103
*91 net85
*92 net104
*93 net105
*94 net106
*95 net107
*96 net108
*97 net109
*98 net110
*99 net111
*100 net112
*101 net113
*102 net86
*103 net114
*104 net115
*105 net116
*106 net117
*107 net118
*108 net119
*109 net120
*110 net121
*111 net87
*112 net88
*113 net89
*114 net90
*115 net91
*116 net92
*117 net93
*118 net122
*119 net132
*120 net133
*121 net134
*122 net135
*123 net136
*124 net137
*125 net138
*126 net139
*127 net140
*128 net141
*129 net123
*130 net142
*131 net143
*132 net144
*133 net145
*134 net146
*135 net147
*136 net148
*137 net149
*138 net150
*139 net151
*140 net124
*141 net152
*142 net153
*143 net154
*144 net155
*145 net156
*146 net157
*147 net158
*148 net159
*149 net125
*150 net126
*151 net127
*152 net128
*153 net129
*154 net130
*155 net131
*156 net160
*157 net161
*158 net162
*159 la_data_in[0]
*160 la_data_in[100]
*161 la_data_in[101]
*162 la_data_in[102]
*163 la_data_in[103]
*164 la_data_in[104]
*165 la_data_in[105]
*166 la_data_in[106]
*167 la_data_in[107]
*168 la_data_in[108]
*169 la_data_in[109]
*170 la_data_in[10]
*171 la_data_in[110]
*172 la_data_in[111]
*173 la_data_in[112]
*174 la_data_in[113]
*175 la_data_in[114]
*176 la_data_in[115]
*177 la_data_in[116]
*178 la_data_in[117]
*179 la_data_in[118]
*180 la_data_in[119]
*181 la_data_in[11]
*182 la_data_in[120]
*183 la_data_in[121]
*184 la_data_in[122]
*185 la_data_in[123]
*186 la_data_in[124]
*187 la_data_in[125]
*188 la_data_in[126]
*189 la_data_in[127]
*190 la_data_in[12]
*191 la_data_in[13]
*192 la_data_in[14]
*193 la_data_in[15]
*194 la_data_in[16]
*195 la_data_in[17]
*196 la_data_in[18]
*197 la_data_in[19]
*198 la_data_in[1]
*199 la_data_in[20]
*200 la_data_in[21]
*201 la_data_in[22]
*202 la_data_in[23]
*203 la_data_in[24]
*204 la_data_in[25]
*205 la_data_in[26]
*206 la_data_in[27]
*207 la_data_in[28]
*208 la_data_in[29]
*209 la_data_in[2]
*210 la_data_in[30]
*211 la_data_in[31]
*212 la_data_in[32]
*213 la_data_in[33]
*214 la_data_in[34]
*215 la_data_in[35]
*216 la_data_in[36]
*217 la_data_in[37]
*218 la_data_in[38]
*219 la_data_in[39]
*220 la_data_in[3]
*221 la_data_in[40]
*222 la_data_in[41]
*223 la_data_in[42]
*224 la_data_in[43]
*225 la_data_in[44]
*226 la_data_in[45]
*227 la_data_in[46]
*228 la_data_in[47]
*229 la_data_in[48]
*230 la_data_in[49]
*231 la_data_in[4]
*232 la_data_in[50]
*233 la_data_in[51]
*234 la_data_in[52]
*235 la_data_in[53]
*236 la_data_in[54]
*237 la_data_in[55]
*238 la_data_in[56]
*239 la_data_in[57]
*240 la_data_in[58]
*241 la_data_in[59]
*242 la_data_in[5]
*243 la_data_in[60]
*244 la_data_in[61]
*245 la_data_in[62]
*246 la_data_in[63]
*247 la_data_in[64]
*248 la_data_in[65]
*249 la_data_in[66]
*250 la_data_in[67]
*251 la_data_in[68]
*252 la_data_in[69]
*253 la_data_in[6]
*254 la_data_in[70]
*255 la_data_in[71]
*256 la_data_in[72]
*257 la_data_in[73]
*258 la_data_in[74]
*259 la_data_in[75]
*260 la_data_in[76]
*261 la_data_in[77]
*262 la_data_in[78]
*263 la_data_in[79]
*264 la_data_in[7]
*265 la_data_in[80]
*266 la_data_in[81]
*267 la_data_in[82]
*268 la_data_in[83]
*269 la_data_in[84]
*270 la_data_in[85]
*271 la_data_in[86]
*272 la_data_in[87]
*273 la_data_in[88]
*274 la_data_in[89]
*275 la_data_in[8]
*276 la_data_in[90]
*277 la_data_in[91]
*278 la_data_in[92]
*279 la_data_in[93]
*280 la_data_in[94]
*281 la_data_in[95]
*282 la_data_in[96]
*283 la_data_in[97]
*284 la_data_in[98]
*285 la_data_in[99]
*286 la_data_in[9]
*287 net163
*288 net263
*289 net264
*290 net265
*291 net266
*292 net267
*293 net268
*294 net269
*295 net270
*296 net271
*297 net272
*298 net173
*299 net273
*300 net274
*301 net275
*302 net276
*303 net277
*304 net278
*305 net279
*306 net280
*307 net281
*308 net282
*309 net174
*310 net283
*311 net284
*312 net285
*313 net286
*314 net287
*315 net288
*316 net289
*317 net290
*318 net175
*319 net176
*320 net177
*321 net178
*322 net179
*323 net180
*324 net181
*325 net182
*326 net164
*327 net183
*328 net184
*329 net185
*330 net186
*331 net187
*332 net188
*333 net189
*334 net190
*335 net191
*336 net192
*337 net165
*338 net193
*339 net194
*340 net195
*341 net196
*342 net197
*343 net198
*344 net199
*345 net200
*346 net201
*347 net202
*348 net166
*349 net203
*350 net204
*351 net205
*352 net206
*353 net207
*354 net208
*355 net209
*356 net210
*357 net211
*358 net212
*359 net167
*360 net213
*361 net214
*362 net215
*363 net216
*364 net217
*365 net218
*366 net219
*367 net220
*368 net221
*369 net222
*370 net168
*371 net223
*372 net224
*373 net225
*374 net226
*375 net227
*376 net228
*377 net229
*378 net230
*379 net231
*380 net232
*381 net169
*382 net233
*383 net234
*384 net235
*385 net236
*386 net237
*387 net238
*388 net239
*389 net240
*390 net241
*391 net242
*392 net170
*393 net243
*394 net244
*395 net245
*396 net246
*397 net247
*398 net248
*399 net249
*400 net250
*401 net251
*402 net252
*403 net171
*404 net253
*405 net254
*406 net255
*407 net256
*408 net257
*409 net258
*410 net259
*411 net260
*412 net261
*413 net262
*414 net172
*415 la_oenb[0]
*416 la_oenb[100]
*417 la_oenb[101]
*418 la_oenb[102]
*419 la_oenb[103]
*420 la_oenb[104]
*421 la_oenb[105]
*422 la_oenb[106]
*423 la_oenb[107]
*424 la_oenb[108]
*425 la_oenb[109]
*426 la_oenb[10]
*427 la_oenb[110]
*428 la_oenb[111]
*429 la_oenb[112]
*430 la_oenb[113]
*431 la_oenb[114]
*432 la_oenb[115]
*433 la_oenb[116]
*434 la_oenb[117]
*435 la_oenb[118]
*436 la_oenb[119]
*437 la_oenb[11]
*438 la_oenb[120]
*439 la_oenb[121]
*440 la_oenb[122]
*441 la_oenb[123]
*442 la_oenb[124]
*443 la_oenb[125]
*444 la_oenb[126]
*445 la_oenb[127]
*446 la_oenb[12]
*447 la_oenb[13]
*448 la_oenb[14]
*449 la_oenb[15]
*450 la_oenb[16]
*451 la_oenb[17]
*452 la_oenb[18]
*453 la_oenb[19]
*454 la_oenb[1]
*455 la_oenb[20]
*456 la_oenb[21]
*457 la_oenb[22]
*458 la_oenb[23]
*459 la_oenb[24]
*460 la_oenb[25]
*461 la_oenb[26]
*462 la_oenb[27]
*463 la_oenb[28]
*464 la_oenb[29]
*465 la_oenb[2]
*466 la_oenb[30]
*467 la_oenb[31]
*468 la_oenb[32]
*469 la_oenb[33]
*470 la_oenb[34]
*471 la_oenb[35]
*472 la_oenb[36]
*473 la_oenb[37]
*474 la_oenb[38]
*475 la_oenb[39]
*476 la_oenb[3]
*477 la_oenb[40]
*478 la_oenb[41]
*479 la_oenb[42]
*480 la_oenb[43]
*481 la_oenb[44]
*482 la_oenb[45]
*483 la_oenb[46]
*484 la_oenb[47]
*485 la_oenb[48]
*486 la_oenb[49]
*487 la_oenb[4]
*488 la_oenb[50]
*489 la_oenb[51]
*490 la_oenb[52]
*491 la_oenb[53]
*492 la_oenb[54]
*493 la_oenb[55]
*494 la_oenb[56]
*495 la_oenb[57]
*496 la_oenb[58]
*497 la_oenb[59]
*498 la_oenb[5]
*499 la_oenb[60]
*500 la_oenb[61]
*501 la_oenb[62]
*502 la_oenb[63]
*503 la_oenb[64]
*504 la_oenb[65]
*505 la_oenb[66]
*506 la_oenb[67]
*507 la_oenb[68]
*508 la_oenb[69]
*509 la_oenb[6]
*510 la_oenb[70]
*511 la_oenb[71]
*512 la_oenb[72]
*513 la_oenb[73]
*514 la_oenb[74]
*515 la_oenb[75]
*516 la_oenb[76]
*517 la_oenb[77]
*518 la_oenb[78]
*519 la_oenb[79]
*520 la_oenb[7]
*521 la_oenb[80]
*522 la_oenb[81]
*523 la_oenb[82]
*524 la_oenb[83]
*525 la_oenb[84]
*526 la_oenb[85]
*527 la_oenb[86]
*528 la_oenb[87]
*529 la_oenb[88]
*530 la_oenb[89]
*531 la_oenb[8]
*532 la_oenb[90]
*533 la_oenb[91]
*534 la_oenb[92]
*535 la_oenb[93]
*536 la_oenb[94]
*537 la_oenb[95]
*538 la_oenb[96]
*539 la_oenb[97]
*540 la_oenb[98]
*541 la_oenb[99]
*542 la_oenb[9]
*543 net291
*544 net292
*547 wb_clk_i
*548 wb_rst_i
*549 wbs_ack_o
*550 wbs_adr_i[0]
*551 wbs_adr_i[10]
*552 wbs_adr_i[11]
*553 wbs_adr_i[12]
*554 wbs_adr_i[13]
*555 wbs_adr_i[14]
*556 wbs_adr_i[15]
*557 wbs_adr_i[16]
*558 wbs_adr_i[17]
*559 wbs_adr_i[18]
*560 wbs_adr_i[19]
*561 wbs_adr_i[1]
*562 wbs_adr_i[20]
*563 wbs_adr_i[21]
*564 wbs_adr_i[22]
*565 wbs_adr_i[23]
*566 wbs_adr_i[24]
*567 wbs_adr_i[25]
*568 wbs_adr_i[26]
*569 wbs_adr_i[27]
*570 wbs_adr_i[28]
*571 wbs_adr_i[29]
*572 wbs_adr_i[2]
*573 wbs_adr_i[30]
*574 wbs_adr_i[31]
*575 wbs_adr_i[3]
*576 wbs_adr_i[4]
*577 wbs_adr_i[5]
*578 wbs_adr_i[6]
*579 wbs_adr_i[7]
*580 wbs_adr_i[8]
*581 wbs_adr_i[9]
*582 wbs_cyc_i
*583 wbs_dat_i[0]
*584 wbs_dat_i[10]
*585 wbs_dat_i[11]
*586 wbs_dat_i[12]
*587 wbs_dat_i[13]
*588 wbs_dat_i[14]
*589 wbs_dat_i[15]
*590 wbs_dat_i[16]
*591 wbs_dat_i[17]
*592 wbs_dat_i[18]
*593 wbs_dat_i[19]
*594 wbs_dat_i[1]
*595 wbs_dat_i[20]
*596 wbs_dat_i[21]
*597 wbs_dat_i[22]
*598 wbs_dat_i[23]
*599 wbs_dat_i[24]
*600 wbs_dat_i[25]
*601 wbs_dat_i[26]
*602 wbs_dat_i[27]
*603 wbs_dat_i[28]
*604 wbs_dat_i[29]
*605 wbs_dat_i[2]
*606 wbs_dat_i[30]
*607 wbs_dat_i[31]
*608 wbs_dat_i[3]
*609 wbs_dat_i[4]
*610 wbs_dat_i[5]
*611 wbs_dat_i[6]
*612 wbs_dat_i[7]
*613 wbs_dat_i[8]
*614 wbs_dat_i[9]
*615 wbs_dat_o[0]
*616 wbs_dat_o[10]
*617 wbs_dat_o[11]
*618 net293
*619 net294
*620 net295
*621 net296
*622 net297
*623 net298
*624 net299
*625 net300
*626 wbs_dat_o[1]
*627 net301
*628 net302
*629 net303
*630 net304
*631 net305
*632 net306
*633 net307
*634 net308
*635 net309
*636 net310
*637 wbs_dat_o[2]
*638 net311
*639 net312
*640 wbs_dat_o[3]
*641 wbs_dat_o[4]
*642 wbs_dat_o[5]
*643 wbs_dat_o[6]
*644 wbs_dat_o[7]
*645 wbs_dat_o[8]
*646 wbs_dat_o[9]
*647 wbs_sel_i[0]
*648 wbs_sel_i[1]
*649 wbs_sel_i[2]
*650 wbs_sel_i[3]
*651 wbs_stb_i
*652 wbs_we_i
*653 _0000_
*654 _0001_
*655 _0002_
*656 _0003_
*657 _0004_
*658 _0005_
*659 _0006_
*660 _0007_
*661 _0008_
*662 _0009_
*663 _0010_
*664 _0011_
*665 _0012_
*666 _0013_
*667 _0014_
*668 _0015_
*669 _0016_
*670 _0017_
*671 _0018_
*672 _0019_
*673 _0020_
*674 _0021_
*675 _0022_
*676 _0023_
*677 _0024_
*678 _0025_
*679 _0026_
*680 _0027_
*681 _0028_
*682 _0029_
*683 _0030_
*684 _0031_
*685 _0032_
*686 _0033_
*687 _0034_
*688 _0035_
*689 _0036_
*690 _0037_
*691 _0038_
*692 _0039_
*693 _0040_
*694 _0041_
*695 _0042_
*696 _0043_
*697 _0044_
*698 _0045_
*699 _0046_
*700 _0047_
*701 _0048_
*702 _0049_
*703 _0050_
*704 _0051_
*705 _0052_
*706 _0053_
*707 _0054_
*708 _0055_
*709 _0056_
*710 _0057_
*711 _0058_
*712 _0059_
*713 _0060_
*714 _0061_
*715 _0062_
*716 _0063_
*717 _0064_
*718 _0065_
*719 _0066_
*720 _0067_
*721 _0068_
*722 _0069_
*723 _0070_
*724 _0071_
*725 _0072_
*726 _0073_
*727 _0074_
*728 _0075_
*729 _0076_
*730 _0077_
*731 _0078_
*732 _0079_
*733 _0080_
*734 _0081_
*735 _0082_
*736 _0083_
*737 _0084_
*738 _0085_
*739 _0086_
*740 _0087_
*741 _0088_
*742 _0089_
*743 _0090_
*744 _0091_
*745 _0092_
*746 _0093_
*747 _0094_
*748 _0095_
*749 _0096_
*750 _0097_
*751 _0098_
*752 _0099_
*753 _0100_
*754 _0101_
*755 _0102_
*756 _0103_
*757 _0104_
*758 _0105_
*759 _0106_
*760 _0107_
*761 _0108_
*762 _0109_
*763 _0110_
*764 _0111_
*765 _0112_
*766 _0113_
*767 _0114_
*768 _0115_
*769 _0116_
*770 _0117_
*771 _0118_
*772 _0119_
*773 _0120_
*774 _0121_
*775 _0122_
*776 _0123_
*777 _0124_
*778 _0125_
*779 _0126_
*780 _0127_
*781 _0128_
*782 _0129_
*783 _0130_
*784 _0131_
*785 _0132_
*786 _0133_
*787 _0134_
*788 _0135_
*789 _0136_
*790 _0137_
*791 _0138_
*792 _0139_
*793 _0140_
*794 _0141_
*795 _0142_
*796 _0143_
*797 _0144_
*798 _0145_
*799 _0146_
*800 _0147_
*801 _0148_
*802 _0149_
*803 _0150_
*804 _0151_
*805 _0152_
*806 _0153_
*807 _0154_
*808 _0155_
*809 _0156_
*810 _0157_
*811 _0158_
*812 _0159_
*813 _0160_
*814 _0161_
*815 _0162_
*816 _0163_
*817 _0164_
*818 _0165_
*819 _0166_
*820 _0167_
*821 _0168_
*822 _0169_
*823 _0170_
*824 _0171_
*825 _0172_
*826 _0173_
*827 _0174_
*828 _0175_
*829 _0176_
*830 _0177_
*831 _0178_
*832 _0179_
*833 _0180_
*834 _0181_
*835 _0182_
*836 _0183_
*837 _0184_
*838 _0185_
*839 _0186_
*840 _0187_
*841 _0188_
*842 _0189_
*843 _0190_
*844 _0191_
*845 _0192_
*846 _0193_
*847 _0194_
*848 _0195_
*849 _0196_
*850 _0197_
*851 _0198_
*852 _0199_
*853 _0200_
*854 _0201_
*855 _0202_
*856 _0203_
*857 _0204_
*858 _0205_
*859 _0206_
*860 _0207_
*861 _0208_
*862 _0209_
*863 _0210_
*864 _0211_
*865 _0212_
*866 _0213_
*867 _0214_
*868 _0215_
*869 _0216_
*870 _0217_
*871 _0218_
*872 _0219_
*873 _0220_
*874 _0221_
*875 _0222_
*876 _0223_
*877 _0224_
*878 _0225_
*879 _0226_
*880 _0227_
*881 _0228_
*882 _0229_
*883 _0230_
*884 _0231_
*885 _0232_
*886 _0233_
*887 _0234_
*888 _0235_
*889 _0236_
*890 _0237_
*891 _0238_
*892 _0239_
*893 _0240_
*894 _0241_
*895 _0242_
*896 _0243_
*897 _0244_
*898 _0245_
*899 _0246_
*900 _0247_
*901 _0248_
*902 _0249_
*903 _0250_
*904 _0251_
*905 _0252_
*906 _0253_
*907 _0254_
*908 _0255_
*909 _0256_
*910 _0257_
*911 _0258_
*912 _0259_
*913 _0260_
*914 _0261_
*915 _0262_
*916 _0263_
*917 _0264_
*918 _0265_
*919 _0266_
*920 _0267_
*921 _0268_
*922 _0269_
*923 _0270_
*924 _0271_
*925 _0272_
*926 _0273_
*927 _0274_
*928 _0275_
*929 _0276_
*930 _0277_
*931 _0278_
*932 _0279_
*933 _0280_
*934 _0281_
*935 _0282_
*936 _0283_
*937 _0284_
*938 _0285_
*939 _0286_
*940 _0287_
*941 _0288_
*942 _0289_
*943 _0290_
*944 _0291_
*945 _0292_
*946 _0293_
*947 _0294_
*948 _0295_
*949 _0296_
*950 _0297_
*951 _0298_
*952 _0299_
*953 _0300_
*954 _0301_
*955 _0302_
*956 _0303_
*957 _0304_
*958 _0305_
*959 _0306_
*960 _0307_
*961 _0308_
*962 _0309_
*963 _0310_
*964 _0311_
*965 _0312_
*966 _0313_
*967 _0314_
*968 _0315_
*969 _0316_
*970 _0317_
*971 _0318_
*972 _0319_
*973 _0320_
*974 _0321_
*975 _0322_
*976 _0323_
*977 _0324_
*978 _0325_
*979 _0326_
*980 _0327_
*981 _0328_
*982 _0329_
*983 _0330_
*984 _0331_
*985 _0332_
*986 _0333_
*987 _0334_
*988 _0335_
*989 _0336_
*990 _0337_
*991 _0338_
*992 _0339_
*993 _0340_
*994 _0341_
*995 _0342_
*996 _0343_
*997 _0344_
*998 _0345_
*999 _0346_
*1000 _0347_
*1001 _0348_
*1002 _0349_
*1003 _0350_
*1004 _0351_
*1005 _0352_
*1006 _0353_
*1007 _0354_
*1008 _0355_
*1009 _0356_
*1010 _0357_
*1011 _0358_
*1012 _0359_
*1013 _0360_
*1014 _0361_
*1015 _0362_
*1016 _0363_
*1017 _0364_
*1018 _0365_
*1019 _0366_
*1020 _0367_
*1021 _0368_
*1022 _0369_
*1023 _0370_
*1024 _0371_
*1025 _0372_
*1026 _0373_
*1027 _0374_
*1028 _0375_
*1029 _0376_
*1030 _0377_
*1031 _0378_
*1032 _0379_
*1033 _0380_
*1034 _0381_
*1035 _0382_
*1036 _0383_
*1037 _0384_
*1038 _0385_
*1039 _0386_
*1040 _0387_
*1041 _0388_
*1042 _0389_
*1043 _0390_
*1044 _0391_
*1045 _0392_
*1046 _0393_
*1047 _0394_
*1048 _0395_
*1049 _0396_
*1050 _0397_
*1051 _0398_
*1052 _0399_
*1053 _0400_
*1054 _0401_
*1055 _0402_
*1056 _0403_
*1057 _0404_
*1058 _0405_
*1059 _0406_
*1060 _0407_
*1061 _0408_
*1062 _0409_
*1063 _0410_
*1064 _0411_
*1065 _0412_
*1066 _0413_
*1067 _0414_
*1068 _0415_
*1069 _0416_
*1070 _0417_
*1071 _0418_
*1072 _0419_
*1073 _0420_
*1074 _0421_
*1075 _0422_
*1076 _0423_
*1077 _0424_
*1078 _0425_
*1079 _0426_
*1080 _0427_
*1081 _0428_
*1082 _0429_
*1083 _0430_
*1084 _0431_
*1085 _0432_
*1086 _0433_
*1087 _0434_
*1088 _0435_
*1089 _0436_
*1090 _0437_
*1091 _0438_
*1092 _0439_
*1093 _0440_
*1094 _0441_
*1095 _0442_
*1096 _0443_
*1097 _0444_
*1098 _0445_
*1099 _0446_
*1100 _0447_
*1101 _0448_
*1102 _0449_
*1103 _0450_
*1104 _0451_
*1105 _0452_
*1106 _0453_
*1107 _0454_
*1108 _0455_
*1109 _0456_
*1110 _0457_
*1111 _0458_
*1112 _0459_
*1113 _0460_
*1114 _0461_
*1115 _0462_
*1116 _0463_
*1117 _0464_
*1118 _0465_
*1119 _0466_
*1120 _0467_
*1121 _0468_
*1122 _0469_
*1123 _0470_
*1124 _0471_
*1125 _0472_
*1126 _0473_
*1127 _0474_
*1128 _0475_
*1129 _0476_
*1130 _0477_
*1131 _0478_
*1132 _0479_
*1133 _0480_
*1134 _0481_
*1135 _0482_
*1136 _0483_
*1137 _0484_
*1138 _0485_
*1139 _0486_
*1140 _0487_
*1141 _0488_
*1142 _0489_
*1143 _0490_
*1144 _0491_
*1145 _0492_
*1146 _0493_
*1147 _0494_
*1148 _0495_
*1149 _0496_
*1150 _0497_
*1151 _0498_
*1152 _0499_
*1153 _0500_
*1154 _0501_
*1155 _0502_
*1156 _0503_
*1157 _0504_
*1158 _0505_
*1159 _0506_
*1160 _0507_
*1161 _0508_
*1162 _0509_
*1163 _0510_
*1164 _0511_
*1165 _0512_
*1166 _0513_
*1167 _0514_
*1168 _0515_
*1169 _0516_
*1170 _0517_
*1171 _0518_
*1172 _0519_
*1173 _0520_
*1174 _0521_
*1175 _0522_
*1176 _0523_
*1177 _0524_
*1178 _0525_
*1179 _0526_
*1180 _0527_
*1181 _0528_
*1182 _0529_
*1183 _0530_
*1184 _0531_
*1185 _0532_
*1186 _0533_
*1187 _0534_
*1188 _0535_
*1189 _0536_
*1190 _0537_
*1191 _0538_
*1192 _0539_
*1193 _0540_
*1194 _0541_
*1195 _0542_
*1196 _0543_
*1197 _0544_
*1198 _0545_
*1199 _0546_
*1200 _0547_
*1201 _0548_
*1202 _0549_
*1203 _0550_
*1204 _0551_
*1205 _0552_
*1206 _0553_
*1207 _0554_
*1208 _0555_
*1209 _0556_
*1210 _0557_
*1211 _0558_
*1212 _0559_
*1213 _0560_
*1214 _0561_
*1215 _0562_
*1216 _0563_
*1217 _0564_
*1218 _0565_
*1219 _0566_
*1220 _0567_
*1221 _0568_
*1222 _0569_
*1223 _0570_
*1224 _0571_
*1225 _0572_
*1226 _0573_
*1227 _0574_
*1228 _0575_
*1229 _0576_
*1230 _0577_
*1231 _0578_
*1232 _0579_
*1233 _0580_
*1234 _0581_
*1235 _0582_
*1236 _0583_
*1237 _0584_
*1238 _0585_
*1239 _0586_
*1240 _0587_
*1241 _0588_
*1242 _0589_
*1243 _0590_
*1244 _0591_
*1245 _0592_
*1246 _0593_
*1247 _0594_
*1248 _0595_
*1249 _0596_
*1250 _0597_
*1251 _0598_
*1252 _0599_
*1253 _0600_
*1254 _0601_
*1255 _0602_
*1256 _0603_
*1257 _0604_
*1258 _0605_
*1259 _0606_
*1260 _0607_
*1261 _0608_
*1262 _0609_
*1263 _0610_
*1264 _0611_
*1265 _0612_
*1266 _0613_
*1267 _0614_
*1268 _0615_
*1269 _0616_
*1270 _0617_
*1271 _0618_
*1272 _0619_
*1273 _0620_
*1274 _0621_
*1275 _0622_
*1276 _0623_
*1277 _0624_
*1278 _0625_
*1279 _0626_
*1280 _0627_
*1281 _0628_
*1282 _0629_
*1283 _0630_
*1284 _0631_
*1285 _0632_
*1286 _0633_
*1287 _0634_
*1288 _0635_
*1289 _0636_
*1290 _0637_
*1291 _0638_
*1292 _0639_
*1293 _0640_
*1294 _0641_
*1295 _0642_
*1296 _0643_
*1297 _0644_
*1298 _0645_
*1299 _0646_
*1300 _0647_
*1301 _0648_
*1302 _0649_
*1303 _0650_
*1304 _0651_
*1305 _0652_
*1306 _0653_
*1307 _0654_
*1308 _0655_
*1309 _0656_
*1310 _0657_
*1311 _0658_
*1312 _0659_
*1313 _0660_
*1314 _0661_
*1315 _0662_
*1316 _0663_
*1317 _0664_
*1318 _0665_
*1319 _0666_
*1320 _0667_
*1321 _0668_
*1322 _0669_
*1323 _0670_
*1324 _0671_
*1325 _0672_
*1326 _0673_
*1327 _0674_
*1328 _0675_
*1329 _0676_
*1330 _0677_
*1331 _0678_
*1332 _0679_
*1333 _0680_
*1334 _0681_
*1335 _0682_
*1336 _0683_
*1337 _0684_
*1338 _0685_
*1339 _0686_
*1340 _0687_
*1341 _0688_
*1342 _0689_
*1343 _0690_
*1344 _0691_
*1345 _0692_
*1346 _0693_
*1347 _0694_
*1348 _0695_
*1349 _0696_
*1350 _0697_
*1351 _0698_
*1352 _0699_
*1353 _0700_
*1354 _0701_
*1355 _0702_
*1356 _0703_
*1357 _0704_
*1358 _0705_
*1359 _0706_
*1360 _0707_
*1361 _0708_
*1362 _0709_
*1363 _0710_
*1364 _0711_
*1365 _0712_
*1366 _0713_
*1367 _0714_
*1368 _0715_
*1369 _0716_
*1370 _0717_
*1371 _0718_
*1372 _0719_
*1373 _0720_
*1374 _0721_
*1375 _0722_
*1376 _0723_
*1377 _0724_
*1378 _0725_
*1379 _0726_
*1380 _0727_
*1381 _0728_
*1382 _0729_
*1383 _0730_
*1384 _0731_
*1385 _0732_
*1386 _0733_
*1387 _0734_
*1388 _0735_
*1389 _0736_
*1390 _0737_
*1391 _0738_
*1392 _0739_
*1393 _0740_
*1394 _0741_
*1395 _0742_
*1396 _0743_
*1397 _0744_
*1398 _0745_
*1399 _0746_
*1400 _0747_
*1401 _0748_
*1402 _0749_
*1403 _0750_
*1404 _0751_
*1405 _0752_
*1406 _0753_
*1407 _0754_
*1408 _0755_
*1409 _0756_
*1410 _0757_
*1411 _0758_
*1412 _0759_
*1413 _0760_
*1414 _0761_
*1415 _0762_
*1416 _0763_
*1417 _0764_
*1418 _0765_
*1419 _0766_
*1420 _0767_
*1421 _0768_
*1422 _0769_
*1423 _0770_
*1424 _0771_
*1425 _0772_
*1426 _0773_
*1427 _0774_
*1428 _0775_
*1429 _0776_
*1430 _0777_
*1431 _0778_
*1432 _0779_
*1433 _0780_
*1434 _0781_
*1435 _0782_
*1436 _0783_
*1437 _0784_
*1438 _0785_
*1439 _0786_
*1440 _0787_
*1441 _0788_
*1442 _0789_
*1443 _0790_
*1444 _0791_
*1445 _0792_
*1446 _0793_
*1447 _0794_
*1448 _0795_
*1449 _0796_
*1450 _0797_
*1451 _0798_
*1452 _0799_
*1453 _0800_
*1454 _0801_
*1455 _0802_
*1456 _0803_
*1457 _0804_
*1458 _0805_
*1459 _0806_
*1460 _0807_
*1461 _0808_
*1462 _0809_
*1463 _0810_
*1464 _0811_
*1465 _0812_
*1466 _0813_
*1467 _0814_
*1468 _0815_
*1469 _0816_
*1470 _0817_
*1471 _0818_
*1472 _0819_
*1473 _0820_
*1474 _0821_
*1475 _0822_
*1476 _0823_
*1477 _0824_
*1478 _0825_
*1479 _0826_
*1480 _0827_
*1481 _0828_
*1482 _0829_
*1483 _0830_
*1484 _0831_
*1485 _0832_
*1486 _0833_
*1487 _0834_
*1488 _0835_
*1489 _0836_
*1490 _0837_
*1491 _0838_
*1492 _0839_
*1493 _0840_
*1494 _0841_
*1495 _0842_
*1496 _0843_
*1497 _0844_
*1498 _0845_
*1499 _0846_
*1500 _0847_
*1501 _0848_
*1502 _0849_
*1503 _0850_
*1504 _0851_
*1505 _0852_
*1506 _0853_
*1507 _0854_
*1508 clknet_0_wb_clk_i
*1509 clknet_2_0__leaf_wb_clk_i
*1510 clknet_2_1__leaf_wb_clk_i
*1511 clknet_2_2__leaf_wb_clk_i
*1512 clknet_2_3__leaf_wb_clk_i
*1513 clknet_leaf_0_wb_clk_i
*1514 clknet_leaf_10_wb_clk_i
*1515 clknet_leaf_11_wb_clk_i
*1516 clknet_leaf_12_wb_clk_i
*1517 clknet_leaf_13_wb_clk_i
*1518 clknet_leaf_14_wb_clk_i
*1519 clknet_leaf_15_wb_clk_i
*1520 clknet_leaf_16_wb_clk_i
*1521 clknet_leaf_17_wb_clk_i
*1522 clknet_leaf_18_wb_clk_i
*1523 clknet_leaf_19_wb_clk_i
*1524 clknet_leaf_1_wb_clk_i
*1525 clknet_leaf_20_wb_clk_i
*1526 clknet_leaf_21_wb_clk_i
*1527 clknet_leaf_22_wb_clk_i
*1528 clknet_leaf_23_wb_clk_i
*1529 clknet_leaf_24_wb_clk_i
*1530 clknet_leaf_25_wb_clk_i
*1531 clknet_leaf_26_wb_clk_i
*1532 clknet_leaf_27_wb_clk_i
*1533 clknet_leaf_28_wb_clk_i
*1534 clknet_leaf_29_wb_clk_i
*1535 clknet_leaf_2_wb_clk_i
*1536 clknet_leaf_30_wb_clk_i
*1537 clknet_leaf_31_wb_clk_i
*1538 clknet_leaf_32_wb_clk_i
*1539 clknet_leaf_33_wb_clk_i
*1540 clknet_leaf_3_wb_clk_i
*1541 clknet_leaf_4_wb_clk_i
*1542 clknet_leaf_5_wb_clk_i
*1543 clknet_leaf_6_wb_clk_i
*1544 clknet_leaf_7_wb_clk_i
*1545 clknet_leaf_8_wb_clk_i
*1546 clknet_leaf_9_wb_clk_i
*1547 net1
*1548 net10
*1549 net11
*1550 net12
*1551 net13
*1552 net14
*1553 net15
*1554 net16
*1555 net17
*1556 net18
*1557 net19
*1558 net2
*1559 net20
*1560 net21
*1561 net22
*1562 net23
*1563 net24
*1564 net25
*1565 net26
*1566 net27
*1567 net28
*1568 net29
*1569 net3
*1570 net30
*1571 net31
*1572 net32
*1573 net33
*1574 net34
*1575 net35
*1576 net36
*1577 net37
*1578 net38
*1579 net39
*1580 net4
*1581 net40
*1582 net41
*1583 net42
*1584 net5
*1585 net6
*1586 net7
*1587 net8
*1588 net9
*1589 rlbp_inst0\.count\[0\]
*1590 rlbp_inst0\.count\[10\]
*1591 rlbp_inst0\.count\[11\]
*1592 rlbp_inst0\.count\[1\]
*1593 rlbp_inst0\.count\[2\]
*1594 rlbp_inst0\.count\[3\]
*1595 rlbp_inst0\.count\[4\]
*1596 rlbp_inst0\.count\[5\]
*1597 rlbp_inst0\.count\[6\]
*1598 rlbp_inst0\.count\[7\]
*1599 rlbp_inst0\.count\[8\]
*1600 rlbp_inst0\.count\[9\]
*1601 rlbp_inst0\.inst10\.time_down_sh_cmp\[0\]
*1602 rlbp_inst0\.inst10\.time_down_sh_cmp\[10\]
*1603 rlbp_inst0\.inst10\.time_down_sh_cmp\[11\]
*1604 rlbp_inst0\.inst10\.time_down_sh_cmp\[1\]
*1605 rlbp_inst0\.inst10\.time_down_sh_cmp\[2\]
*1606 rlbp_inst0\.inst10\.time_down_sh_cmp\[3\]
*1607 rlbp_inst0\.inst10\.time_down_sh_cmp\[4\]
*1608 rlbp_inst0\.inst10\.time_down_sh_cmp\[5\]
*1609 rlbp_inst0\.inst10\.time_down_sh_cmp\[6\]
*1610 rlbp_inst0\.inst10\.time_down_sh_cmp\[7\]
*1611 rlbp_inst0\.inst10\.time_down_sh_cmp\[8\]
*1612 rlbp_inst0\.inst10\.time_down_sh_cmp\[9\]
*1613 rlbp_inst0\.inst10\.time_up_sh_cmp\[0\]
*1614 rlbp_inst0\.inst10\.time_up_sh_cmp\[10\]
*1615 rlbp_inst0\.inst10\.time_up_sh_cmp\[11\]
*1616 rlbp_inst0\.inst10\.time_up_sh_cmp\[1\]
*1617 rlbp_inst0\.inst10\.time_up_sh_cmp\[2\]
*1618 rlbp_inst0\.inst10\.time_up_sh_cmp\[3\]
*1619 rlbp_inst0\.inst10\.time_up_sh_cmp\[4\]
*1620 rlbp_inst0\.inst10\.time_up_sh_cmp\[5\]
*1621 rlbp_inst0\.inst10\.time_up_sh_cmp\[6\]
*1622 rlbp_inst0\.inst10\.time_up_sh_cmp\[7\]
*1623 rlbp_inst0\.inst10\.time_up_sh_cmp\[8\]
*1624 rlbp_inst0\.inst10\.time_up_sh_cmp\[9\]
*1625 rlbp_inst0\.inst11\.time_down_sh_reset\[0\]
*1626 rlbp_inst0\.inst11\.time_down_sh_reset\[10\]
*1627 rlbp_inst0\.inst11\.time_down_sh_reset\[11\]
*1628 rlbp_inst0\.inst11\.time_down_sh_reset\[1\]
*1629 rlbp_inst0\.inst11\.time_down_sh_reset\[2\]
*1630 rlbp_inst0\.inst11\.time_down_sh_reset\[3\]
*1631 rlbp_inst0\.inst11\.time_down_sh_reset\[4\]
*1632 rlbp_inst0\.inst11\.time_down_sh_reset\[5\]
*1633 rlbp_inst0\.inst11\.time_down_sh_reset\[6\]
*1634 rlbp_inst0\.inst11\.time_down_sh_reset\[7\]
*1635 rlbp_inst0\.inst11\.time_down_sh_reset\[8\]
*1636 rlbp_inst0\.inst11\.time_down_sh_reset\[9\]
*1637 rlbp_inst0\.inst11\.time_up_sh_reset\[0\]
*1638 rlbp_inst0\.inst11\.time_up_sh_reset\[10\]
*1639 rlbp_inst0\.inst11\.time_up_sh_reset\[11\]
*1640 rlbp_inst0\.inst11\.time_up_sh_reset\[1\]
*1641 rlbp_inst0\.inst11\.time_up_sh_reset\[2\]
*1642 rlbp_inst0\.inst11\.time_up_sh_reset\[3\]
*1643 rlbp_inst0\.inst11\.time_up_sh_reset\[4\]
*1644 rlbp_inst0\.inst11\.time_up_sh_reset\[5\]
*1645 rlbp_inst0\.inst11\.time_up_sh_reset\[6\]
*1646 rlbp_inst0\.inst11\.time_up_sh_reset\[7\]
*1647 rlbp_inst0\.inst11\.time_up_sh_reset\[8\]
*1648 rlbp_inst0\.inst11\.time_up_sh_reset\[9\]
*1649 rlbp_inst0\.inst12\.time_down_counter_reset_out\[0\]
*1650 rlbp_inst0\.inst12\.time_down_counter_reset_out\[10\]
*1651 rlbp_inst0\.inst12\.time_down_counter_reset_out\[11\]
*1652 rlbp_inst0\.inst12\.time_down_counter_reset_out\[1\]
*1653 rlbp_inst0\.inst12\.time_down_counter_reset_out\[2\]
*1654 rlbp_inst0\.inst12\.time_down_counter_reset_out\[3\]
*1655 rlbp_inst0\.inst12\.time_down_counter_reset_out\[4\]
*1656 rlbp_inst0\.inst12\.time_down_counter_reset_out\[5\]
*1657 rlbp_inst0\.inst12\.time_down_counter_reset_out\[6\]
*1658 rlbp_inst0\.inst12\.time_down_counter_reset_out\[7\]
*1659 rlbp_inst0\.inst12\.time_down_counter_reset_out\[8\]
*1660 rlbp_inst0\.inst12\.time_down_counter_reset_out\[9\]
*1661 rlbp_inst0\.inst12\.time_up_counter_reset_out\[0\]
*1662 rlbp_inst0\.inst12\.time_up_counter_reset_out\[10\]
*1663 rlbp_inst0\.inst12\.time_up_counter_reset_out\[11\]
*1664 rlbp_inst0\.inst12\.time_up_counter_reset_out\[1\]
*1665 rlbp_inst0\.inst12\.time_up_counter_reset_out\[2\]
*1666 rlbp_inst0\.inst12\.time_up_counter_reset_out\[3\]
*1667 rlbp_inst0\.inst12\.time_up_counter_reset_out\[4\]
*1668 rlbp_inst0\.inst12\.time_up_counter_reset_out\[5\]
*1669 rlbp_inst0\.inst12\.time_up_counter_reset_out\[6\]
*1670 rlbp_inst0\.inst12\.time_up_counter_reset_out\[7\]
*1671 rlbp_inst0\.inst12\.time_up_counter_reset_out\[8\]
*1672 rlbp_inst0\.inst12\.time_up_counter_reset_out\[9\]
*1673 rlbp_inst0\.inst5\.time_down_vd1\[0\]
*1674 rlbp_inst0\.inst5\.time_down_vd1\[10\]
*1675 rlbp_inst0\.inst5\.time_down_vd1\[11\]
*1676 rlbp_inst0\.inst5\.time_down_vd1\[1\]
*1677 rlbp_inst0\.inst5\.time_down_vd1\[2\]
*1678 rlbp_inst0\.inst5\.time_down_vd1\[3\]
*1679 rlbp_inst0\.inst5\.time_down_vd1\[4\]
*1680 rlbp_inst0\.inst5\.time_down_vd1\[5\]
*1681 rlbp_inst0\.inst5\.time_down_vd1\[6\]
*1682 rlbp_inst0\.inst5\.time_down_vd1\[7\]
*1683 rlbp_inst0\.inst5\.time_down_vd1\[8\]
*1684 rlbp_inst0\.inst5\.time_down_vd1\[9\]
*1685 rlbp_inst0\.inst5\.time_up_vd1\[0\]
*1686 rlbp_inst0\.inst5\.time_up_vd1\[10\]
*1687 rlbp_inst0\.inst5\.time_up_vd1\[11\]
*1688 rlbp_inst0\.inst5\.time_up_vd1\[1\]
*1689 rlbp_inst0\.inst5\.time_up_vd1\[2\]
*1690 rlbp_inst0\.inst5\.time_up_vd1\[3\]
*1691 rlbp_inst0\.inst5\.time_up_vd1\[4\]
*1692 rlbp_inst0\.inst5\.time_up_vd1\[5\]
*1693 rlbp_inst0\.inst5\.time_up_vd1\[6\]
*1694 rlbp_inst0\.inst5\.time_up_vd1\[7\]
*1695 rlbp_inst0\.inst5\.time_up_vd1\[8\]
*1696 rlbp_inst0\.inst5\.time_up_vd1\[9\]
*1697 rlbp_inst0\.inst6\.time_down_vd2\[0\]
*1698 rlbp_inst0\.inst6\.time_down_vd2\[10\]
*1699 rlbp_inst0\.inst6\.time_down_vd2\[11\]
*1700 rlbp_inst0\.inst6\.time_down_vd2\[1\]
*1701 rlbp_inst0\.inst6\.time_down_vd2\[2\]
*1702 rlbp_inst0\.inst6\.time_down_vd2\[3\]
*1703 rlbp_inst0\.inst6\.time_down_vd2\[4\]
*1704 rlbp_inst0\.inst6\.time_down_vd2\[5\]
*1705 rlbp_inst0\.inst6\.time_down_vd2\[6\]
*1706 rlbp_inst0\.inst6\.time_down_vd2\[7\]
*1707 rlbp_inst0\.inst6\.time_down_vd2\[8\]
*1708 rlbp_inst0\.inst6\.time_down_vd2\[9\]
*1709 rlbp_inst0\.inst6\.time_up_vd2\[0\]
*1710 rlbp_inst0\.inst6\.time_up_vd2\[10\]
*1711 rlbp_inst0\.inst6\.time_up_vd2\[11\]
*1712 rlbp_inst0\.inst6\.time_up_vd2\[1\]
*1713 rlbp_inst0\.inst6\.time_up_vd2\[2\]
*1714 rlbp_inst0\.inst6\.time_up_vd2\[3\]
*1715 rlbp_inst0\.inst6\.time_up_vd2\[4\]
*1716 rlbp_inst0\.inst6\.time_up_vd2\[5\]
*1717 rlbp_inst0\.inst6\.time_up_vd2\[6\]
*1718 rlbp_inst0\.inst6\.time_up_vd2\[7\]
*1719 rlbp_inst0\.inst6\.time_up_vd2\[8\]
*1720 rlbp_inst0\.inst6\.time_up_vd2\[9\]
*1721 rlbp_inst0\.inst7\.time_down_sw1\[0\]
*1722 rlbp_inst0\.inst7\.time_down_sw1\[10\]
*1723 rlbp_inst0\.inst7\.time_down_sw1\[11\]
*1724 rlbp_inst0\.inst7\.time_down_sw1\[1\]
*1725 rlbp_inst0\.inst7\.time_down_sw1\[2\]
*1726 rlbp_inst0\.inst7\.time_down_sw1\[3\]
*1727 rlbp_inst0\.inst7\.time_down_sw1\[4\]
*1728 rlbp_inst0\.inst7\.time_down_sw1\[5\]
*1729 rlbp_inst0\.inst7\.time_down_sw1\[6\]
*1730 rlbp_inst0\.inst7\.time_down_sw1\[7\]
*1731 rlbp_inst0\.inst7\.time_down_sw1\[8\]
*1732 rlbp_inst0\.inst7\.time_down_sw1\[9\]
*1733 rlbp_inst0\.inst7\.time_up_sw1\[0\]
*1734 rlbp_inst0\.inst7\.time_up_sw1\[10\]
*1735 rlbp_inst0\.inst7\.time_up_sw1\[11\]
*1736 rlbp_inst0\.inst7\.time_up_sw1\[1\]
*1737 rlbp_inst0\.inst7\.time_up_sw1\[2\]
*1738 rlbp_inst0\.inst7\.time_up_sw1\[3\]
*1739 rlbp_inst0\.inst7\.time_up_sw1\[4\]
*1740 rlbp_inst0\.inst7\.time_up_sw1\[5\]
*1741 rlbp_inst0\.inst7\.time_up_sw1\[6\]
*1742 rlbp_inst0\.inst7\.time_up_sw1\[7\]
*1743 rlbp_inst0\.inst7\.time_up_sw1\[8\]
*1744 rlbp_inst0\.inst7\.time_up_sw1\[9\]
*1745 rlbp_inst0\.inst8\.time_down_sw2\[0\]
*1746 rlbp_inst0\.inst8\.time_down_sw2\[10\]