*SPEF "ieee 1481-1999"
*DESIGN "rlbp_macro"
*DATE "11:11:11 Fri 11 11, 1111"
*VENDOR "OpenRCX"
*PROGRAM "Parallel Extraction"
*VERSION "1.0"
*DESIGN_FLOW "NAME_SCOPE LOCAL" "PIN_CAP NONE"
*DIVIDER /
*DELIMITER :
*BUS_DELIMITER []
*T_UNIT 1 NS
*C_UNIT 1 PF
*R_UNIT 1 OHM
*L_UNIT 1 HENRY

*NAME_MAP
*1 io_in[0]
*2 io_in[10]
*3 io_in[11]
*4 io_in[12]
*5 io_in[13]
*6 io_in[14]
*7 io_in[15]
*8 io_in[16]
*9 io_in[17]
*10 io_in[18]
*11 io_in[19]
*12 io_in[1]
*13 io_in[20]
*14 io_in[21]
*15 io_in[22]
*16 io_in[23]
*17 io_in[24]
*18 io_in[25]
*19 io_in[26]
*20 io_in[27]
*21 io_in[28]
*22 io_in[29]
*23 io_in[2]
*24 io_in[30]
*25 io_in[31]
*26 io_in[32]
*27 io_in[33]
*28 io_in[34]
*29 io_in[35]
*30 io_in[36]
*31 io_in[37]
*32 io_in[3]
*33 io_in[4]
*34 io_in[5]
*35 io_in[6]
*36 io_in[7]
*37 io_in[8]
*38 io_in[9]
*39 net37
*40 net47
*41 net48
*42 net49
*43 net50
*44 net51
*45 net52
*46 net53
*47 net54
*48 net55
*49 net56
*50 net38
*51 net57
*52 net58
*53 net59
*54 net60
*55 net61
*56 net62
*57 net63
*58 net64
*59 net65
*60 net66
*61 net39
*62 net67
*63 net68
*64 net69
*65 net70
*66 net71
*67 net72
*68 net73
*69 net74
*70 net40
*71 net41
*72 net42
*73 net43
*74 net44
*75 net45
*76 net46
*77 net75
*78 net85
*79 net86
*80 net87
*81 net88
*82 net89
*83 net90
*84 net91
*85 net92
*86 net93
*87 net94
*88 net76
*89 net95
*90 net96
*91 net97
*92 net98
*93 net99
*94 net100
*95 net101
*96 net102
*97 net103
*98 net104
*99 net77
*100 net105
*101 net106
*102 net107
*103 net108
*104 net109
*105 net110
*106 net111
*107 net112
*108 net78
*109 net79
*110 net80
*111 net81
*112 net82
*113 net83
*114 net84
*115 net113
*116 net114
*117 net115
*118 la_data_in[0]
*119 la_data_in[100]
*120 la_data_in[101]
*121 la_data_in[102]
*122 la_data_in[103]
*123 la_data_in[104]
*124 la_data_in[105]
*125 la_data_in[106]
*126 la_data_in[107]
*127 la_data_in[108]
*128 la_data_in[109]
*129 la_data_in[10]
*130 la_data_in[110]
*131 la_data_in[111]
*132 la_data_in[112]
*133 la_data_in[113]
*134 la_data_in[114]
*135 la_data_in[115]
*136 la_data_in[116]
*137 la_data_in[117]
*138 la_data_in[118]
*139 la_data_in[119]
*140 la_data_in[11]
*141 la_data_in[120]
*142 la_data_in[121]
*143 la_data_in[122]
*144 la_data_in[123]
*145 la_data_in[124]
*146 la_data_in[125]
*147 la_data_in[126]
*148 la_data_in[127]
*149 la_data_in[12]
*150 la_data_in[13]
*151 la_data_in[14]
*152 la_data_in[15]
*153 la_data_in[16]
*154 la_data_in[17]
*155 la_data_in[18]
*156 la_data_in[19]
*157 la_data_in[1]
*158 la_data_in[20]
*159 la_data_in[21]
*160 la_data_in[22]
*161 la_data_in[23]
*162 la_data_in[24]
*163 la_data_in[25]
*164 la_data_in[26]
*165 la_data_in[27]
*166 la_data_in[28]
*167 la_data_in[29]
*168 la_data_in[2]
*169 la_data_in[30]
*170 la_data_in[31]
*171 la_data_in[32]
*172 la_data_in[33]
*173 la_data_in[34]
*174 la_data_in[35]
*175 la_data_in[36]
*176 la_data_in[37]
*177 la_data_in[38]
*178 la_data_in[39]
*179 la_data_in[3]
*180 la_data_in[40]
*181 la_data_in[41]
*182 la_data_in[42]
*183 la_data_in[43]
*184 la_data_in[44]
*185 la_data_in[45]
*186 la_data_in[46]
*187 la_data_in[47]
*188 la_data_in[48]
*189 la_data_in[49]
*190 la_data_in[4]
*191 la_data_in[50]
*192 la_data_in[51]
*193 la_data_in[52]
*194 la_data_in[53]
*195 la_data_in[54]
*196 la_data_in[55]
*197 la_data_in[56]
*198 la_data_in[57]
*199 la_data_in[58]
*200 la_data_in[59]
*201 la_data_in[5]
*202 la_data_in[60]
*203 la_data_in[61]
*204 la_data_in[62]
*205 la_data_in[63]
*206 la_data_in[64]
*207 la_data_in[65]
*208 la_data_in[66]
*209 la_data_in[67]
*210 la_data_in[68]
*211 la_data_in[69]
*212 la_data_in[6]
*213 la_data_in[70]
*214 la_data_in[71]
*215 la_data_in[72]
*216 la_data_in[73]
*217 la_data_in[74]
*218 la_data_in[75]
*219 la_data_in[76]
*220 la_data_in[77]
*221 la_data_in[78]
*222 la_data_in[79]
*223 la_data_in[7]
*224 la_data_in[80]
*225 la_data_in[81]
*226 la_data_in[82]
*227 la_data_in[83]
*228 la_data_in[84]
*229 la_data_in[85]
*230 la_data_in[86]
*231 la_data_in[87]
*232 la_data_in[88]
*233 la_data_in[89]
*234 la_data_in[8]
*235 la_data_in[90]
*236 la_data_in[91]
*237 la_data_in[92]
*238 la_data_in[93]
*239 la_data_in[94]
*240 la_data_in[95]
*241 la_data_in[96]
*242 la_data_in[97]
*243 la_data_in[98]
*244 la_data_in[99]
*245 la_data_in[9]
*246 net116
*247 net203
*248 net204
*249 net205
*250 net206
*251 net207
*252 net208
*253 net209
*254 net210
*255 net211
*256 net212
*257 net126
*258 net213
*259 net214
*260 net215
*261 net216
*262 net217
*263 net218
*264 net219
*265 net220
*266 net221
*267 net222
*268 net127
*269 net223
*270 net224
*271 net225
*272 net226
*273 net227
*274 net228
*275 net229
*276 net230
*277 net128
*278 net129
*279 net130
*280 net131
*281 net132
*282 net133
*283 net134
*284 net135
*285 net117
*286 net136
*287 net137
*288 la_data_out[22]
*289 la_data_out[23]
*290 la_data_out[24]
*291 la_data_out[25]
*292 la_data_out[26]
*293 la_data_out[27]
*294 la_data_out[28]
*295 la_data_out[29]
*296 net118
*297 la_data_out[30]
*298 la_data_out[31]
*299 la_data_out[32]
*300 la_data_out[33]
*301 la_data_out[34]
*302 net138
*303 net139
*304 net140
*305 net141
*306 net142
*307 net119
*308 net143
*309 net144
*310 net145
*311 net146
*312 net147
*313 net148
*314 net149
*315 net150
*316 net151
*317 net152
*318 net120
*319 net153
*320 net154
*321 net155
*322 net156
*323 net157
*324 net158
*325 net159
*326 net160
*327 net161
*328 net162
*329 net121
*330 net163
*331 net164
*332 net165
*333 net166
*334 net167
*335 net168
*336 net169
*337 net170
*338 net171
*339 net172
*340 net122
*341 net173
*342 net174
*343 net175
*344 net176
*345 net177
*346 net178
*347 net179
*348 net180
*349 net181
*350 net182
*351 net123
*352 net183
*353 net184
*354 net185
*355 net186
*356 net187
*357 net188
*358 net189
*359 net190
*360 net191
*361 net192
*362 net124
*363 net193
*364 net194
*365 net195
*366 net196
*367 net197
*368 net198
*369 net199
*370 net200
*371 net201
*372 net202
*373 net125
*374 la_oenb[0]
*375 la_oenb[100]
*376 la_oenb[101]
*377 la_oenb[102]
*378 la_oenb[103]
*379 la_oenb[104]
*380 la_oenb[105]
*381 la_oenb[106]
*382 la_oenb[107]
*383 la_oenb[108]
*384 la_oenb[109]
*385 la_oenb[10]
*386 la_oenb[110]
*387 la_oenb[111]
*388 la_oenb[112]
*389 la_oenb[113]
*390 la_oenb[114]
*391 la_oenb[115]
*392 la_oenb[116]
*393 la_oenb[117]
*394 la_oenb[118]
*395 la_oenb[119]
*396 la_oenb[11]
*397 la_oenb[120]
*398 la_oenb[121]
*399 la_oenb[122]
*400 la_oenb[123]
*401 la_oenb[124]
*402 la_oenb[125]
*403 la_oenb[126]
*404 la_oenb[127]
*405 la_oenb[12]
*406 la_oenb[13]
*407 la_oenb[14]
*408 la_oenb[15]
*409 la_oenb[16]
*410 la_oenb[17]
*411 la_oenb[18]
*412 la_oenb[19]
*413 la_oenb[1]
*414 la_oenb[20]
*415 la_oenb[21]
*416 la_oenb[22]
*417 la_oenb[23]
*418 la_oenb[24]
*419 la_oenb[25]
*420 la_oenb[26]
*421 la_oenb[27]
*422 la_oenb[28]
*423 la_oenb[29]
*424 la_oenb[2]
*425 la_oenb[30]
*426 la_oenb[31]
*427 la_oenb[32]
*428 la_oenb[33]
*429 la_oenb[34]
*430 la_oenb[35]
*431 la_oenb[36]
*432 la_oenb[37]
*433 la_oenb[38]
*434 la_oenb[39]
*435 la_oenb[3]
*436 la_oenb[40]
*437 la_oenb[41]
*438 la_oenb[42]
*439 la_oenb[43]
*440 la_oenb[44]
*441 la_oenb[45]
*442 la_oenb[46]
*443 la_oenb[47]
*444 la_oenb[48]
*445 la_oenb[49]
*446 la_oenb[4]
*447 la_oenb[50]
*448 la_oenb[51]
*449 la_oenb[52]
*450 la_oenb[53]
*451 la_oenb[54]
*452 la_oenb[55]
*453 la_oenb[56]
*454 la_oenb[57]
*455 la_oenb[58]
*456 la_oenb[59]
*457 la_oenb[5]
*458 la_oenb[60]
*459 la_oenb[61]
*460 la_oenb[62]
*461 la_oenb[63]
*462 la_oenb[64]
*463 la_oenb[65]
*464 la_oenb[66]
*465 la_oenb[67]
*466 la_oenb[68]
*467 la_oenb[69]
*468 la_oenb[6]
*469 la_oenb[70]
*470 la_oenb[71]
*471 la_oenb[72]
*472 la_oenb[73]
*473 la_oenb[74]
*474 la_oenb[75]
*475 la_oenb[76]
*476 la_oenb[77]
*477 la_oenb[78]
*478 la_oenb[79]
*479 la_oenb[7]
*480 la_oenb[80]
*481 la_oenb[81]
*482 la_oenb[82]
*483 la_oenb[83]
*484 la_oenb[84]
*485 la_oenb[85]
*486 la_oenb[86]
*487 la_oenb[87]
*488 la_oenb[88]
*489 la_oenb[89]
*490 la_oenb[8]
*491 la_oenb[90]
*492 la_oenb[91]
*493 la_oenb[92]
*494 la_oenb[93]
*495 la_oenb[94]
*496 la_oenb[95]
*497 la_oenb[96]
*498 la_oenb[97]
*499 la_oenb[98]
*500 la_oenb[99]
*501 la_oenb[9]
*504 wb_clk_i
*505 wb_rst_i
*506 wbs_ack_o
*507 wbs_adr_i[0]
*508 wbs_adr_i[10]
*509 wbs_adr_i[11]
*510 wbs_adr_i[12]
*511 wbs_adr_i[13]
*512 wbs_adr_i[14]
*513 wbs_adr_i[15]
*514 wbs_adr_i[16]
*515 wbs_adr_i[17]
*516 wbs_adr_i[18]
*517 wbs_adr_i[19]
*518 wbs_adr_i[1]
*519 wbs_adr_i[20]
*520 wbs_adr_i[21]
*521 wbs_adr_i[22]
*522 wbs_adr_i[23]
*523 wbs_adr_i[24]
*524 wbs_adr_i[25]
*525 wbs_adr_i[26]
*526 wbs_adr_i[27]
*527 wbs_adr_i[28]
*528 wbs_adr_i[29]
*529 wbs_adr_i[2]
*530 wbs_adr_i[30]
*531 wbs_adr_i[31]
*532 wbs_adr_i[3]
*533 wbs_adr_i[4]
*534 wbs_adr_i[5]
*535 wbs_adr_i[6]
*536 wbs_adr_i[7]
*537 wbs_adr_i[8]
*538 wbs_adr_i[9]
*539 wbs_cyc_i
*540 wbs_dat_i[0]
*541 wbs_dat_i[10]
*542 wbs_dat_i[11]
*543 wbs_dat_i[12]
*544 wbs_dat_i[13]
*545 wbs_dat_i[14]
*546 wbs_dat_i[15]
*547 wbs_dat_i[16]
*548 wbs_dat_i[17]
*549 wbs_dat_i[18]
*550 wbs_dat_i[19]
*551 wbs_dat_i[1]
*552 wbs_dat_i[20]
*553 wbs_dat_i[21]
*554 wbs_dat_i[22]
*555 wbs_dat_i[23]
*556 wbs_dat_i[24]
*557 wbs_dat_i[25]
*558 wbs_dat_i[26]
*559 wbs_dat_i[27]
*560 wbs_dat_i[28]
*561 wbs_dat_i[29]
*562 wbs_dat_i[2]
*563 wbs_dat_i[30]
*564 wbs_dat_i[31]
*565 wbs_dat_i[3]
*566 wbs_dat_i[4]
*567 wbs_dat_i[5]
*568 wbs_dat_i[6]
*569 wbs_dat_i[7]
*570 wbs_dat_i[8]
*571 wbs_dat_i[9]
*572 wbs_dat_o[0]
*573 net238
*574 net239
*575 net240
*576 net241
*577 net242
*578 net243
*579 net244
*580 net245
*581 net246
*582 net247
*583 wbs_dat_o[1]
*584 net248
*585 net249
*586 net250
*587 net251
*588 net252
*589 net253
*590 net254
*591 net255
*592 net256
*593 net257
*594 wbs_dat_o[2]
*595 net258
*596 net259
*597 net231
*598 net232
*599 net233
*600 net234
*601 net235
*602 net236
*603 net237
*604 wbs_sel_i[0]
*605 wbs_sel_i[1]
*606 wbs_sel_i[2]
*607 wbs_sel_i[3]
*608 wbs_stb_i
*609 wbs_we_i
*610 _000_
*611 _001_
*612 _002_
*613 _003_
*614 _004_
*615 _005_
*616 _006_
*617 _007_
*618 _008_
*619 _009_
*620 _010_
*621 _011_
*622 _012_
*623 _013_
*624 _014_
*625 _015_
*626 _016_
*627 _017_
*628 _018_
*629 _019_
*630 _020_
*631 _021_
*632 _022_
*633 _023_
*634 _024_
*635 _025_
*636 _026_
*637 _027_
*638 _028_
*639 _029_
*640 _030_
*641 _031_
*642 _032_
*643 _033_
*644 _034_
*645 _035_
*646 _036_
*647 _037_
*648 _038_
*649 _039_
*650 _040_
*651 _041_
*652 _042_
*653 _043_
*654 _044_
*655 _045_
*656 _046_
*657 _047_
*658 _048_
*659 _049_
*660 _050_
*661 _051_
*662 _052_
*663 _053_
*664 _054_
*665 _055_
*666 _056_
*667 _057_
*668 _058_
*669 _059_
*670 _060_
*671 _061_
*672 _062_
*673 _063_
*674 _064_
*675 _065_
*676 _066_
*677 _067_
*678 _068_
*679 _069_
*680 _070_
*681 _071_
*682 _072_
*683 _073_
*684 _074_
*685 _075_
*686 _076_
*687 _077_
*688 _078_
*689 _079_
*690 _080_
*691 _081_
*692 _082_
*693 _083_
*694 _084_
*695 _085_
*696 _086_
*697 _087_
*698 _088_
*699 _089_
*700 _090_
*701 _091_
*702 _092_
*703 _093_
*704 _094_
*705 _095_
*706 _096_
*707 _097_
*708 _098_
*709 _099_
*710 _100_
*711 _101_
*712 _102_
*713 _103_
*714 _104_
*715 _105_
*716 _106_
*717 _107_
*718 _108_
*719 _109_
*720 _110_
*721 _111_
*722 _112_
*723 _113_
*724 _114_
*725 _115_
*726 _116_
*727 clknet_0_wb_clk_i
*728 clknet_1_0__leaf_wb_clk_i
*729 clknet_1_1__leaf_wb_clk_i
*730 net1
*731 net10
*732 net11
*733 net12
*734 net13
*735 net14
*736 net15
*737 net16
*738 net17
*739 net18
*740 net19
*741 net2
*742 net20
*743 net21
*744 net22
*745 net23
*746 net24
*747 net25
*748 net26
*749 net27
*750 net28
*751 net29
*752 net3
*753 net30
*754 net31
*755 net32
*756 net33
*757 net34
*758 net35
*759 net36
*760 net4
*761 net5
*762 net6
*763 net7
*764 net8
*765 net9
*766 rlbp_inst0\.data_in
*767 rlbp_inst0\.data_net\[2\]
*768 rlbp_inst0\.gpio_start
*769 rlbp_inst0\.inst1\.ce_d1
*770 rlbp_inst0\.inst1\.ce_d2
*771 rlbp_inst0\.inst1\.ce_d3
*772 rlbp_inst0\.inst1\.logic_analyzer_start
*773 rlbp_inst0\.inst1\.next_state_rlbp\[0\]
*774 rlbp_inst0\.inst1\.next_state_rlbp\[1\]
*775 rlbp_inst0\.inst1\.next_state_rlbp\[2\]
*776 rlbp_inst0\.inst1\.next_state_rlbp\[3\]
*777 rlbp_inst0\.inst1\.state_rlbp\[0\]
*778 rlbp_inst0\.inst1\.state_rlbp\[1\]
*779 rlbp_inst0\.inst1\.state_rlbp\[2\]
*780 rlbp_inst0\.inst1\.state_rlbp\[3\]
*781 ANTENNA__117__A
*782 ANTENNA__117__B
*783 ANTENNA__118__A0
*784 ANTENNA__120__A0
*785 ANTENNA__120__A1
*786 ANTENNA__122__A
*787 ANTENNA__123__B
*788 ANTENNA__124__A0
*789 ANTENNA__124__A1
*790 ANTENNA__124__S
*791 ANTENNA__126__A0
*792 ANTENNA__126__A1
*793 ANTENNA__126__S
*794 ANTENNA__128__A_N
*795 ANTENNA__128__B
*796 ANTENNA__128__C
*797 ANTENNA__129__A0
*798 ANTENNA__129__A1
*799 ANTENNA__129__S
*800 ANTENNA__135__A_N
*801 ANTENNA__135__B
*802 ANTENNA__135__C
*803 ANTENNA__136__A1
*804 ANTENNA__140__A
*805 ANTENNA__140__B_N
*806 ANTENNA__144__A
*807 ANTENNA__145__A
*808 ANTENNA__148__B
*809 ANTENNA__149__B
*810 ANTENNA__149__C_N
*811 ANTENNA__150__B1
*812 ANTENNA__151__A
*813 ANTENNA__151__B
*814 ANTENNA__156__B
*815 ANTENNA__156__C
*816 ANTENNA__157__B1
*817 ANTENNA__160__B
*818 ANTENNA__164__A
*819 ANTENNA__166__A
*820 ANTENNA__168__A
*821 ANTENNA__172__A
*822 ANTENNA__172__B
*823 ANTENNA__172__C
*824 ANTENNA__188__A
*825 ANTENNA__190__A2
*826 ANTENNA__194__A1
*827 ANTENNA__207__C1
*828 ANTENNA__210__A1
*829 ANTENNA__210__C1
*830 ANTENNA__211__A
*831 ANTENNA__212__A
*832 ANTENNA__215__A0
*833 ANTENNA__216__A
*834 ANTENNA__218__A0
*835 ANTENNA__219__A
*836 ANTENNA__221__A0
*837 ANTENNA__222__A
*838 ANTENNA__224__A
*839 ANTENNA__225__A
*840 ANTENNA__226__A
*841 ANTENNA__227__A
*842 ANTENNA__228__A
*843 ANTENNA__229__A
*844 ANTENNA__230__A
*845 ANTENNA__236__A
*846 ANTENNA__237__A
*847 ANTENNA__238__CLK
*848 ANTENNA__239__CLK
*849 ANTENNA__240__CLK
*850 ANTENNA__241__CLK
*851 ANTENNA__242__CLK
*852 ANTENNA__243__CLK
*853 ANTENNA__244__CLK
*854 ANTENNA__245__CLK
*855 ANTENNA__246__CLK
*856 ANTENNA__247__CLK
*857 ANTENNA__248__CLK
*858 ANTENNA__250__CLK
*859 ANTENNA__251__CLK
*860 ANTENNA__252__CLK
*861 ANTENNA__253__CLK
*862 ANTENNA__254__CLK
*863 ANTENNA__255__CLK
*864 ANTENNA__256__CLK
*865 ANTENNA__257__CLK
*866 ANTENNA__258__CLK
*867 ANTENNA__259__CLK
*868 ANTENNA__260__CLK
*869 ANTENNA__261__CLK
*870 ANTENNA__264__GATE_N
*871 ANTENNA__265__D
*872 ANTENNA__265__GATE_N
*873 ANTENNA__267__GATE_N
*874 ANTENNA_clkbuf_0_wb_clk_i_A
*875 ANTENNA_input10_A
*876 ANTENNA_input11_A
*877 ANTENNA_input12_A
*878 ANTENNA_input13_A
*879 ANTENNA_input14_A
*880 ANTENNA_input15_A
*881 ANTENNA_input16_A
*882 ANTENNA_input17_A
*883 ANTENNA_input18_A
*884 ANTENNA_input1_A
*885 ANTENNA_input2_A
*886 ANTENNA_input3_A
*887 ANTENNA_input4_A
*888 ANTENNA_input5_A
*889 ANTENNA_input6_A
*890 ANTENNA_input7_A
*891 ANTENNA_input8_A
*892 ANTENNA_input9_A
*893 ANTENNA_output19_A
*894 ANTENNA_output20_A
*895 ANTENNA_output24_A
*896 ANTENNA_output25_A
*897 ANTENNA_output26_A
*898 ANTENNA_output27_A
*899 ANTENNA_output30_A
*900 ANTENNA_output31_A
*901 ANTENNA_output32_A
*902 ANTENNA_repeater36_A
*903 FILLER_0_10
*904 FILLER_0_108
*905 FILLER_0_115
*906 FILLER_0_122
*907 FILLER_0_134
*908 FILLER_0_143
*909 FILLER_0_150
*910 FILLER_0_157
*911 FILLER_0_164
*912 FILLER_0_169
*913 FILLER_0_17
*914 FILLER_0_178
*915 FILLER_0_185
*916 FILLER_0_192
*917 FILLER_0_199
*918 FILLER_0_206
*919 FILLER_0_213
*920 FILLER_0_220
*921 FILLER_0_225
*922 FILLER_0_232
*923 FILLER_0_24
*924 FILLER_0_240
*925 FILLER_0_248
*926 FILLER_0_262
*927 FILLER_0_273
*928 FILLER_0_279
*929 FILLER_0_29
*930 FILLER_0_297
*931 FILLER_0_3
*932 FILLER_0_304
*933 FILLER_0_313
*934 FILLER_0_320
*935 FILLER_0_324
*936 FILLER_0_328
*937 FILLER_0_33
*938 FILLER_0_340
*939 FILLER_0_347
*940 FILLER_0_354
*941 FILLER_0_360
*942 FILLER_0_368
*943 FILLER_0_375
*944 FILLER_0_382
*945 FILLER_0_388
*946 FILLER_0_396
*947 FILLER_0_40
*948 FILLER_0_403
*949 FILLER_0_410
*950 FILLER_0_416
*951 FILLER_0_424
*952 FILLER_0_431
*953 FILLER_0_438
*954 FILLER_0_444
*955 FILLER_0_452
*956 FILLER_0_459
*957 FILLER_0_466
*958 FILLER_0_472
*959 FILLER_0_480
*960 FILLER_0_487
*961 FILLER_0_494
*962 FILLER_0_500
*963 FILLER_0_508
*964 FILLER_0_515
*965 FILLER_0_52
*966 FILLER_0_522
*967 FILLER_0_528
*968 FILLER_0_536
*969 FILLER_0_543
*970 FILLER_0_550
*971 FILLER_0_556
*972 FILLER_0_564
*973 FILLER_0_57
*974 FILLER_0_571
*975 FILLER_0_578
*976 FILLER_0_584
*977 FILLER_0_595
*978 FILLER_0_602
*979 FILLER_0_609
*980 FILLER_0_615
*981 FILLER_0_62
*982 FILLER_0_620
*983 FILLER_0_624
*984 FILLER_0_68
*985 FILLER_0_7
*986 FILLER_0_79
*987 FILLER_0_83
*988 FILLER_0_89
*989 FILLER_0_97
*990 FILLER_1_101
*991 FILLER_1_108
*992 FILLER_1_115
*993 FILLER_1_122
*994 FILLER_1_136
*995 FILLER_1_149
*996 FILLER_1_15
*997 FILLER_1_164
*998 FILLER_1_169
*999 FILLER_1_174
*1000 FILLER_1_181
*1001 FILLER_1_188
*1002 FILLER_1_195
*1003 FILLER_1_21
*1004 FILLER_1_215
*1005 FILLER_1_223
*1006 FILLER_1_225
*1007 FILLER_1_230
*1008 FILLER_1_238
*1009 FILLER_1_262
*1010 FILLER_1_270
*1011 FILLER_1_275
*1012 FILLER_1_279
*1013 FILLER_1_28
*1014 FILLER_1_285
*1015 FILLER_1_291
*1016 FILLER_1_295
*1017 FILLER_1_3
*1018 FILLER_1_319
*1019 FILLER_1_332
*1020 FILLER_1_340
*1021 FILLER_1_347
*1022 FILLER_1_373
*1023 FILLER_1_380
*1024 FILLER_1_387
*1025 FILLER_1_39
*1026 FILLER_1_391
*1027 FILLER_1_396
*1028 FILLER_1_403
*1029 FILLER_1_410
*1030 FILLER_1_417
*1031 FILLER_1_424
*1032 FILLER_1_431
*1033 FILLER_1_438
*1034 FILLER_1_444
*1035 FILLER_1_452
*1036 FILLER_1_459
*1037 FILLER_1_466
*1038 FILLER_1_473
*1039 FILLER_1_480
*1040 FILLER_1_487
*1041 FILLER_1_494
*1042 FILLER_1_500
*1043 FILLER_1_508
*1044 FILLER_1_515
*1045 FILLER_1_52
*1046 FILLER_1_522
*1047 FILLER_1_528
*1048 FILLER_1_537
*1049 FILLER_1_544
*1050 FILLER_1_551
*1051 FILLER_1_559
*1052 FILLER_1_564
*1053 FILLER_1_571
*1054 FILLER_1_589
*1055 FILLER_1_602
*1056 FILLER_1_609
*1057 FILLER_1_615
*1058 FILLER_1_620
*1059 FILLER_1_624
*1060 FILLER_1_65
*1061 FILLER_1_69
*1062 FILLER_1_74
*1063 FILLER_1_84
*1064 FILLER_1_9
*1065 FILLER_1_90
*1066 FILLER_1_94
*1067 FILLER_2_100
*1068 FILLER_2_105
*1069 FILLER_2_11
*1070 FILLER_2_112
*1071 FILLER_2_125
*1072 FILLER_2_133
*1073 FILLER_2_139
*1074 FILLER_2_149
*1075 FILLER_2_153
*1076 FILLER_2_157
*1077 FILLER_2_167
*1078 FILLER_2_17
*1079 FILLER_2_171
*1080 FILLER_2_175
*1081 FILLER_2_182
*1082 FILLER_2_192
*1083 FILLER_2_197
*1084 FILLER_2_210
*1085 FILLER_2_219
*1086 FILLER_2_227
*1087 FILLER_2_235
*1088 FILLER_2_24
*1089 FILLER_2_240
*1090 FILLER_2_248
*1091 FILLER_2_253
*1092 FILLER_2_264
*1093 FILLER_2_272
*1094 FILLER_2_280
*1095 FILLER_2_304
*1096 FILLER_2_312
*1097 FILLER_2_325
*1098 FILLER_2_332
*1099 FILLER_2_336
*1100 FILLER_2_340
*1101 FILLER_2_347
*1102 FILLER_2_354
*1103 FILLER_2_360
*1104 FILLER_2_368
*1105 FILLER_2_374
*1106 FILLER_2_38
*1107 FILLER_2_387
*1108 FILLER_2_394
*1109 FILLER_2_401
*1110 FILLER_2_416
*1111 FILLER_2_424
*1112 FILLER_2_431
*1113 FILLER_2_438
*1114 FILLER_2_44
*1115 FILLER_2_454
*1116 FILLER_2_461
*1117 FILLER_2_468
*1118 FILLER_2_48
*1119 FILLER_2_486
*1120 FILLER_2_5
*1121 FILLER_2_501
*1122 FILLER_2_525
*1123 FILLER_2_531
*1124 FILLER_2_545
*1125 FILLER_2_552
*1126 FILLER_2_577
*1127 FILLER_2_584
*1128 FILLER_2_598
*1129 FILLER_2_60
*1130 FILLER_2_605
*1131 FILLER_2_612
*1132 FILLER_2_619
*1133 FILLER_2_66
*1134 FILLER_2_73
*1135 FILLER_2_80
*1136 FILLER_2_88
*1137 FILLER_2_96
*1138 FILLER_3_102
*1139 FILLER_3_108
*1140 FILLER_3_12
*1141 FILLER_3_121
*1142 FILLER_3_127
*1143 FILLER_3_134
*1144 FILLER_3_141
*1145 FILLER_3_148
*1146 FILLER_3_155
*1147 FILLER_3_163
*1148 FILLER_3_167
*1149 FILLER_3_169
*1150 FILLER_3_178
*1151 FILLER_3_188
*1152 FILLER_3_20
*1153 FILLER_3_212
*1154 FILLER_3_216
*1155 FILLER_3_220
*1156 FILLER_3_233
*1157 FILLER_3_245
*1158 FILLER_3_249
*1159 FILLER_3_266
*1160 FILLER_3_272
*1161 FILLER_3_276
*1162 FILLER_3_284
*1163 FILLER_3_29
*1164 FILLER_3_290
*1165 FILLER_3_294
*1166 FILLER_3_3
*1167 FILLER_3_318
*1168 FILLER_3_325
*1169 FILLER_3_331
*1170 FILLER_3_335
*1171 FILLER_3_337
*1172 FILLER_3_345
*1173 FILLER_3_371
*1174 FILLER_3_381
*1175 FILLER_3_388
*1176 FILLER_3_399
*1177 FILLER_3_406
*1178 FILLER_3_412
*1179 FILLER_3_416
*1180 FILLER_3_442
*1181 FILLER_3_449
*1182 FILLER_3_453
*1183 FILLER_3_458
*1184 FILLER_3_467
*1185 FILLER_3_474
*1186 FILLER_3_481
*1187 FILLER_3_488
*1188 FILLER_3_49
*1189 FILLER_3_497
*1190 FILLER_3_503
*1191 FILLER_3_525
*1192 FILLER_3_532
*1193 FILLER_3_539
*1194 FILLER_3_546
*1195 FILLER_3_55
*1196 FILLER_3_553
*1197 FILLER_3_559
*1198 FILLER_3_57
*1199 FILLER_3_582
*1200 FILLER_3_588
*1201 FILLER_3_605
*1202 FILLER_3_611
*1203 FILLER_3_615
*1204 FILLER_3_619
*1205 FILLER_3_62
*1206 FILLER_3_69
*1207 FILLER_3_76
*1208 FILLER_3_9
*1209 FILLER_3_96
*1210 FILLER_4_117
*1211 FILLER_4_127
*1212 FILLER_4_136
*1213 FILLER_4_141
*1214 FILLER_4_148
*1215 FILLER_4_15
*1216 FILLER_4_155
*1217 FILLER_4_162
*1218 FILLER_4_173
*1219 FILLER_4_181
*1220 FILLER_4_19
*1221 FILLER_4_191
*1222 FILLER_4_195
*1223 FILLER_4_213
*1224 FILLER_4_219
*1225 FILLER_4_223
*1226 FILLER_4_227
*1227 FILLER_4_236
*1228 FILLER_4_24
*1229 FILLER_4_248
*1230 FILLER_4_261
*1231 FILLER_4_289
*1232 FILLER_4_296
*1233 FILLER_4_3
*1234 FILLER_4_300
*1235 FILLER_4_304
*1236 FILLER_4_316
*1237 FILLER_4_32
*1238 FILLER_4_338
*1239 FILLER_4_344
*1240 FILLER_4_360
*1241 FILLER_4_365
*1242 FILLER_4_369
*1243 FILLER_4_390
*1244 FILLER_4_396
*1245 FILLER_4_401
*1246 FILLER_4_407
*1247 FILLER_4_413
*1248 FILLER_4_419
*1249 FILLER_4_424
*1250 FILLER_4_430
*1251 FILLER_4_454
*1252 FILLER_4_463
*1253 FILLER_4_472
*1254 FILLER_4_480
*1255 FILLER_4_509
*1256 FILLER_4_515
*1257 FILLER_4_52
*1258 FILLER_4_528
*1259 FILLER_4_536
*1260 FILLER_4_542
*1261 FILLER_4_546
*1262 FILLER_4_566
*1263 FILLER_4_584
*1264 FILLER_4_594
*1265 FILLER_4_60
*1266 FILLER_4_600
*1267 FILLER_4_606
*1268 FILLER_4_612
*1269 FILLER_4_624
*1270 FILLER_4_66
*1271 FILLER_4_73
*1272 FILLER_4_80
*1273 FILLER_4_85
*1274 FILLER_4_90
*1275 FILLER_4_97
*1276 FILLER_5_101
*1277 FILLER_5_108
*1278 FILLER_5_113
*1279 FILLER_5_118
*1280 FILLER_5_135
*1281 FILLER_5_139
*1282 FILLER_5_143
*1283 FILLER_5_15
*1284 FILLER_5_150
*1285 FILLER_5_157
*1286 FILLER_5_164
*1287 FILLER_5_171
*1288 FILLER_5_178
*1289 FILLER_5_188
*1290 FILLER_5_196
*1291 FILLER_5_204
*1292 FILLER_5_208
*1293 FILLER_5_21
*1294 FILLER_5_214
*1295 FILLER_5_220
*1296 FILLER_5_225
*1297 FILLER_5_231
*1298 FILLER_5_237
*1299 FILLER_5_24
*1300 FILLER_5_243
*1301 FILLER_5_249
*1302 FILLER_5_255
*1303 FILLER_5_262
*1304 FILLER_5_269
*1305 FILLER_5_276
*1306 FILLER_5_297
*1307 FILLER_5_3
*1308 FILLER_5_304
*1309 FILLER_5_312
*1310 FILLER_5_323
*1311 FILLER_5_327
*1312 FILLER_5_330
*1313 FILLER_5_340
*1314 FILLER_5_349
*1315 FILLER_5_36
*1316 FILLER_5_362
*1317 FILLER_5_372
*1318 FILLER_5_376
*1319 FILLER_5_382
*1320 FILLER_5_388
*1321 FILLER_5_393
*1322 FILLER_5_398
*1323 FILLER_5_40
*1324 FILLER_5_404
*1325 FILLER_5_412
*1326 FILLER_5_418
*1327 FILLER_5_429
*1328 FILLER_5_433
*1329 FILLER_5_437
*1330 FILLER_5_443
*1331 FILLER_5_447
*1332 FILLER_5_456
*1333 FILLER_5_463
*1334 FILLER_5_471
*1335 FILLER_5_475
*1336 FILLER_5_485
*1337 FILLER_5_49
*1338 FILLER_5_493
*1339 FILLER_5_500
*1340 FILLER_5_508
*1341 FILLER_5_512
*1342 FILLER_5_518
*1343 FILLER_5_525
*1344 FILLER_5_532
*1345 FILLER_5_538
*1346 FILLER_5_542
*1347 FILLER_5_549
*1348 FILLER_5_55
*1349 FILLER_5_556
*1350 FILLER_5_564
*1351 FILLER_5_571
*1352 FILLER_5_578
*1353 FILLER_5_586
*1354 FILLER_5_59
*1355 FILLER_5_590
*1356 FILLER_5_596
*1357 FILLER_5_602
*1358 FILLER_5_614
*1359 FILLER_5_617
*1360 FILLER_5_66
*1361 FILLER_5_73
*1362 FILLER_5_80
*1363 FILLER_5_87
*1364 FILLER_5_94
*1365 FILLER_6_101
*1366 FILLER_6_110
*1367 FILLER_6_118
*1368 FILLER_6_122
*1369 FILLER_6_131
*1370 FILLER_6_139
*1371 FILLER_6_141
*1372 FILLER_6_145
*1373 FILLER_6_15
*1374 FILLER_6_152
*1375 FILLER_6_158
*1376 FILLER_6_161
*1377 FILLER_6_168
*1378 FILLER_6_172
*1379 FILLER_6_176
*1380 FILLER_6_188
*1381 FILLER_6_197
*1382 FILLER_6_205
*1383 FILLER_6_208
*1384 FILLER_6_214
*1385 FILLER_6_220
*1386 FILLER_6_223
*1387 FILLER_6_229
*1388 FILLER_6_232
*1389 FILLER_6_238
*1390 FILLER_6_244
*1391 FILLER_6_253
*1392 FILLER_6_257
*1393 FILLER_6_263
*1394 FILLER_6_269
*1395 FILLER_6_27
*1396 FILLER_6_276
*1397 FILLER_6_283
*1398 FILLER_6_29
*1399 FILLER_6_290
*1400 FILLER_6_297
*1401 FILLER_6_3
*1402 FILLER_6_303
*1403 FILLER_6_307
*1404 FILLER_6_309
*1405 FILLER_6_313
*1406 FILLER_6_317
*1407 FILLER_6_320
*1408 FILLER_6_328
*1409 FILLER_6_338
*1410 FILLER_6_344
*1411 FILLER_6_350
*1412 FILLER_6_355
*1413 FILLER_6_363
*1414 FILLER_6_37
*1415 FILLER_6_372
*1416 FILLER_6_378
*1417 FILLER_6_385
*1418 FILLER_6_391
*1419 FILLER_6_399
*1420 FILLER_6_405
*1421 FILLER_6_41
*1422 FILLER_6_417
*1423 FILLER_6_423
*1424 FILLER_6_429
*1425 FILLER_6_437
*1426 FILLER_6_442
*1427 FILLER_6_452
*1428 FILLER_6_458
*1429 FILLER_6_470
*1430 FILLER_6_477
*1431 FILLER_6_483
*1432 FILLER_6_489
*1433 FILLER_6_49
*1434 FILLER_6_495
*1435 FILLER_6_501
*1436 FILLER_6_507
*1437 FILLER_6_513
*1438 FILLER_6_525
*1439 FILLER_6_528
*1440 FILLER_6_533
*1441 FILLER_6_538
*1442 FILLER_6_54
*1443 FILLER_6_545
*1444 FILLER_6_549
*1445 FILLER_6_553
*1446 FILLER_6_560
*1447 FILLER_6_567
*1448 FILLER_6_573
*1449 FILLER_6_585
*1450 FILLER_6_591
*1451 FILLER_6_597
*1452 FILLER_6_60
*1453 FILLER_6_609
*1454 FILLER_6_621
*1455 FILLER_6_64
*1456 FILLER_6_67
*1457 FILLER_6_73
*1458 FILLER_6_80
*1459 FILLER_6_85
*1460 FILLER_6_89
*1461 FILLER_6_93
*1462 FILLER_6_97
*1463 FILLER_7_100
*1464 FILLER_7_103
*1465 FILLER_7_111
*1466 FILLER_7_113
*1467 FILLER_7_119
*1468 FILLER_7_131
*1469 FILLER_7_143
*1470 FILLER_7_15
*1471 FILLER_7_155
*1472 FILLER_7_167
*1473 FILLER_7_169
*1474 FILLER_7_181
*1475 FILLER_7_193
*1476 FILLER_7_205
*1477 FILLER_7_211
*1478 FILLER_7_214
*1479 FILLER_7_220
*1480 FILLER_7_225
*1481 FILLER_7_237
*1482 FILLER_7_242
*1483 FILLER_7_254
*1484 FILLER_7_266
*1485 FILLER_7_269
*1486 FILLER_7_27
*1487 FILLER_7_273
*1488 FILLER_7_276
*1489 FILLER_7_283
*1490 FILLER_7_293
*1491 FILLER_7_3
*1492 FILLER_7_305
*1493 FILLER_7_317
*1494 FILLER_7_320
*1495 FILLER_7_326
*1496 FILLER_7_334
*1497 FILLER_7_337
*1498 FILLER_7_351
*1499 FILLER_7_357
*1500 FILLER_7_365
*1501 FILLER_7_371
*1502 FILLER_7_377
*1503 FILLER_7_389
*1504 FILLER_7_39
*1505 FILLER_7_393
*1506 FILLER_7_405
*1507 FILLER_7_417
*1508 FILLER_7_429
*1509 FILLER_7_441
*1510 FILLER_7_447
*1511 FILLER_7_449
*1512 FILLER_7_461
*1513 FILLER_7_473
*1514 FILLER_7_481
*1515 FILLER_7_485
*1516 FILLER_7_497
*1517 FILLER_7_503
*1518 FILLER_7_505
*1519 FILLER_7_51
*1520 FILLER_7_517
*1521 FILLER_7_529
*1522 FILLER_7_532
*1523 FILLER_7_536
*1524 FILLER_7_539
*1525 FILLER_7_545
*1526 FILLER_7_55
*1527 FILLER_7_553
*1528 FILLER_7_559
*1529 FILLER_7_563
*1530 FILLER_7_57
*1531 FILLER_7_575
*1532 FILLER_7_587
*1533 FILLER_7_599
*1534 FILLER_7_611
*1535 FILLER_7_615
*1536 FILLER_7_617
*1537 FILLER_7_69
*1538 FILLER_7_75
*1539 FILLER_7_78
*1540 FILLER_7_84
*1541 FILLER_7_90
*1542 FILLER_7_96
*1543 FILLER_8_110
*1544 FILLER_8_115
*1545 FILLER_8_127
*1546 FILLER_8_139
*1547 FILLER_8_141
*1548 FILLER_8_145
*1549 FILLER_8_15
*1550 FILLER_8_157
*1551 FILLER_8_169
*1552 FILLER_8_175
*1553 FILLER_8_187
*1554 FILLER_8_195
*1555 FILLER_8_197
*1556 FILLER_8_209
*1557 FILLER_8_220
*1558 FILLER_8_232
*1559 FILLER_8_244
*1560 FILLER_8_256
*1561 FILLER_8_268
*1562 FILLER_8_27
*1563 FILLER_8_274
*1564 FILLER_8_277
*1565 FILLER_8_281
*1566 FILLER_8_285
*1567 FILLER_8_29
*1568 FILLER_8_291
*1569 FILLER_8_3
*1570 FILLER_8_303
*1571 FILLER_8_307
*1572 FILLER_8_309
*1573 FILLER_8_321
*1574 FILLER_8_333
*1575 FILLER_8_345
*1576 FILLER_8_353
*1577 FILLER_8_361
*1578 FILLER_8_365
*1579 FILLER_8_377
*1580 FILLER_8_381
*1581 FILLER_8_385
*1582 FILLER_8_397
*1583 FILLER_8_409
*1584 FILLER_8_41
*1585 FILLER_8_417
*1586 FILLER_8_424
*1587 FILLER_8_436
*1588 FILLER_8_448
*1589 FILLER_8_460
*1590 FILLER_8_465
*1591 FILLER_8_473
*1592 FILLER_8_477
*1593 FILLER_8_489
*1594 FILLER_8_495
*1595 FILLER_8_507
*1596 FILLER_8_519
*1597 FILLER_8_525
*1598 FILLER_8_53
*1599 FILLER_8_531
*1600 FILLER_8_533
*1601 FILLER_8_545
*1602 FILLER_8_553
*1603 FILLER_8_556
*1604 FILLER_8_568
*1605 FILLER_8_576
*1606 FILLER_8_580
*1607 FILLER_8_589
*1608 FILLER_8_60
*1609 FILLER_8_601
*1610 FILLER_8_613
*1611 FILLER_8_72
*1612 FILLER_8_85
*1613 FILLER_8_93
*1614 FILLER_8_98
*1615 FILLER_9_105
*1616 FILLER_9_111
*1617 FILLER_9_113
*1618 FILLER_9_120
*1619 FILLER_9_124
*1620 FILLER_9_128
*1621 FILLER_9_135
*1622 FILLER_9_139
*1623 FILLER_9_141
*1624 FILLER_9_15
*1625 FILLER_9_150
*1626 FILLER_9_157
*1627 FILLER_9_164
*1628 FILLER_9_169
*1629 FILLER_9_178
*1630 FILLER_9_185
*1631 FILLER_9_192
*1632 FILLER_9_197
*1633 FILLER_9_203
*1634 FILLER_9_210
*1635 FILLER_9_216
*1636 FILLER_9_220
*1637 FILLER_9_225
*1638 FILLER_9_229
*1639 FILLER_9_233
*1640 FILLER_9_240
*1641 FILLER_9_244
*1642 FILLER_9_248
*1643 FILLER_9_253
*1644 FILLER_9_262
*1645 FILLER_9_269
*1646 FILLER_9_27
*1647 FILLER_9_276
*1648 FILLER_9_281
*1649 FILLER_9_29
*1650 FILLER_9_290
*1651 FILLER_9_297
*1652 FILLER_9_3
*1653 FILLER_9_304
*1654 FILLER_9_309
*1655 FILLER_9_315
*1656 FILLER_9_319
*1657 FILLER_9_323
*1658 FILLER_9_330
*1659 FILLER_9_340
*1660 FILLER_9_347
*1661 FILLER_9_351
*1662 FILLER_9_355
*1663 FILLER_9_363
*1664 FILLER_9_368
*1665 FILLER_9_375
*1666 FILLER_9_38
*1667 FILLER_9_382
*1668 FILLER_9_390
*1669 FILLER_9_396
*1670 FILLER_9_403
*1671 FILLER_9_410
*1672 FILLER_9_418
*1673 FILLER_9_424
*1674 FILLER_9_431
*1675 FILLER_9_438
*1676 FILLER_9_446
*1677 FILLER_9_45
*1678 FILLER_9_452
*1679 FILLER_9_459
*1680 FILLER_9_466
*1681 FILLER_9_474
*1682 FILLER_9_480
*1683 FILLER_9_487
*1684 FILLER_9_494
*1685 FILLER_9_502
*1686 FILLER_9_508
*1687 FILLER_9_515
*1688 FILLER_9_52
*1689 FILLER_9_522
*1690 FILLER_9_530
*1691 FILLER_9_536
*1692 FILLER_9_543
*1693 FILLER_9_550
*1694 FILLER_9_558
*1695 FILLER_9_564
*1696 FILLER_9_57
*1697 FILLER_9_571
*1698 FILLER_9_578
*1699 FILLER_9_586
*1700 FILLER_9_592
*1701 FILLER_9_599
*1702 FILLER_9_606
*1703 FILLER_9_614
*1704 FILLER_9_617
*1705 FILLER_9_66
*1706 FILLER_9_73
*1707 FILLER_9_80
*1708 FILLER_9_85
*1709 FILLER_9_90
*1710 FILLER_9_94
*1711 FILLER_9_98
*1712 PHY_0