*SPEF "ieee 1481-1999"
*DESIGN "rlbp_macro"
*DATE "11:11:11 Fri 11 11, 1111"
*VENDOR "OpenRCX"
*PROGRAM "Parallel Extraction"
*VERSION "1.0"
*DESIGN_FLOW "NAME_SCOPE LOCAL" "PIN_CAP NONE"
*DIVIDER /
*DELIMITER :
*BUS_DELIMITER []
*T_UNIT 1 NS
*C_UNIT 1 PF
*R_UNIT 1 OHM
*L_UNIT 1 HENRY

*NAME_MAP
*1 io_in[0]
*2 io_in[10]
*3 io_in[11]
*4 io_in[12]
*5 io_in[13]
*6 io_in[14]
*7 io_in[15]
*8 io_in[16]
*9 io_in[17]
*10 io_in[18]
*11 io_in[19]
*12 io_in[1]
*13 io_in[20]
*14 io_in[21]
*15 io_in[22]
*16 io_in[23]
*17 io_in[24]
*18 io_in[25]
*19 io_in[26]
*20 io_in[27]
*21 io_in[28]
*22 io_in[29]
*23 io_in[2]
*24 io_in[30]
*25 io_in[31]
*26 io_in[32]
*27 io_in[33]
*28 io_in[34]
*29 io_in[35]
*30 io_in[36]
*31 io_in[37]
*32 io_in[3]
*33 io_in[4]
*34 io_in[5]
*35 io_in[6]
*36 io_in[7]
*37 io_in[8]
*38 io_in[9]
*39 net72
*40 net82
*41 net83
*42 net84
*43 net85
*44 net86
*45 net87
*46 net88
*47 net89
*48 net90
*49 net91
*50 net73
*51 net92
*52 net93
*53 net94
*54 net95
*55 net96
*56 net97
*57 net98
*58 net99
*59 net100
*60 net101
*61 net74
*62 net102
*63 net103
*64 net104
*65 net105
*66 net106
*67 net107
*68 net108
*69 net109
*70 net75
*71 net76
*72 net77
*73 net78
*74 net79
*75 net80
*76 net81
*77 net110
*78 net120
*79 net121
*80 net122
*81 net123
*82 net124
*83 net125
*84 net126
*85 net127
*86 net128
*87 net129
*88 net111
*89 net130
*90 net131
*91 net132
*92 net133
*93 net134
*94 net135
*95 net136
*96 net137
*97 net138
*98 net139
*99 net112
*100 net140
*101 net141
*102 net142
*103 net143
*104 net144
*105 net145
*106 net146
*107 net147
*108 net113
*109 net114
*110 net115
*111 net116
*112 net117
*113 net118
*114 net119
*115 net148
*116 net149
*117 net150
*118 la_data_in[0]
*119 la_data_in[100]
*120 la_data_in[101]
*121 la_data_in[102]
*122 la_data_in[103]
*123 la_data_in[104]
*124 la_data_in[105]
*125 la_data_in[106]
*126 la_data_in[107]
*127 la_data_in[108]
*128 la_data_in[109]
*129 la_data_in[10]
*130 la_data_in[110]
*131 la_data_in[111]
*132 la_data_in[112]
*133 la_data_in[113]
*134 la_data_in[114]
*135 la_data_in[115]
*136 la_data_in[116]
*137 la_data_in[117]
*138 la_data_in[118]
*139 la_data_in[119]
*140 la_data_in[11]
*141 la_data_in[120]
*142 la_data_in[121]
*143 la_data_in[122]
*144 la_data_in[123]
*145 la_data_in[124]
*146 la_data_in[125]
*147 la_data_in[126]
*148 la_data_in[127]
*149 la_data_in[12]
*150 la_data_in[13]
*151 la_data_in[14]
*152 la_data_in[15]
*153 la_data_in[16]
*154 la_data_in[17]
*155 la_data_in[18]
*156 la_data_in[19]
*157 la_data_in[1]
*158 la_data_in[20]
*159 la_data_in[21]
*160 la_data_in[22]
*161 la_data_in[23]
*162 la_data_in[24]
*163 la_data_in[25]
*164 la_data_in[26]
*165 la_data_in[27]
*166 la_data_in[28]
*167 la_data_in[29]
*168 la_data_in[2]
*169 la_data_in[30]
*170 la_data_in[31]
*171 la_data_in[32]
*172 la_data_in[33]
*173 la_data_in[34]
*174 la_data_in[35]
*175 la_data_in[36]
*176 la_data_in[37]
*177 la_data_in[38]
*178 la_data_in[39]
*179 la_data_in[3]
*180 la_data_in[40]
*181 la_data_in[41]
*182 la_data_in[42]
*183 la_data_in[43]
*184 la_data_in[44]
*185 la_data_in[45]
*186 la_data_in[46]
*187 la_data_in[47]
*188 la_data_in[48]
*189 la_data_in[49]
*190 la_data_in[4]
*191 la_data_in[50]
*192 la_data_in[51]
*193 la_data_in[52]
*194 la_data_in[53]
*195 la_data_in[54]
*196 la_data_in[55]
*197 la_data_in[56]
*198 la_data_in[57]
*199 la_data_in[58]
*200 la_data_in[59]
*201 la_data_in[5]
*202 la_data_in[60]
*203 la_data_in[61]
*204 la_data_in[62]
*205 la_data_in[63]
*206 la_data_in[64]
*207 la_data_in[65]
*208 la_data_in[66]
*209 la_data_in[67]
*210 la_data_in[68]
*211 la_data_in[69]
*212 la_data_in[6]
*213 la_data_in[70]
*214 la_data_in[71]
*215 la_data_in[72]
*216 la_data_in[73]
*217 la_data_in[74]
*218 la_data_in[75]
*219 la_data_in[76]
*220 la_data_in[77]
*221 la_data_in[78]
*222 la_data_in[79]
*223 la_data_in[7]
*224 la_data_in[80]
*225 la_data_in[81]
*226 la_data_in[82]
*227 la_data_in[83]
*228 la_data_in[84]
*229 la_data_in[85]
*230 la_data_in[86]
*231 la_data_in[87]
*232 la_data_in[88]
*233 la_data_in[89]
*234 la_data_in[8]
*235 la_data_in[90]
*236 la_data_in[91]
*237 la_data_in[92]
*238 la_data_in[93]
*239 la_data_in[94]
*240 la_data_in[95]
*241 la_data_in[96]
*242 la_data_in[97]
*243 la_data_in[98]
*244 la_data_in[99]
*245 la_data_in[9]
*246 net151
*247 net238
*248 net239
*249 net240
*250 net241
*251 la_data_out[104]
*252 la_data_out[105]
*253 la_data_out[106]
*254 net242
*255 la_data_out[108]
*256 la_data_out[109]
*257 net161
*258 la_data_out[110]
*259 la_data_out[111]
*260 la_data_out[112]
*261 la_data_out[113]
*262 la_data_out[114]
*263 la_data_out[115]
*264 la_data_out[116]
*265 net243
*266 net244
*267 net245
*268 net162
*269 net246
*270 net247
*271 net248
*272 net249
*273 net250
*274 net251
*275 net252
*276 net253
*277 net163
*278 net164
*279 net165
*280 net166
*281 net167
*282 net168
*283 net169
*284 net170
*285 net152
*286 net171
*287 net172
*288 net173
*289 net174
*290 net175
*291 net176
*292 net177
*293 net178
*294 net179
*295 net180
*296 net153
*297 net181
*298 net182
*299 net183
*300 net184
*301 net185
*302 net186
*303 net187
*304 net188
*305 net189
*306 net190
*307 net154
*308 net191
*309 net192
*310 net193
*311 net194
*312 net195
*313 net196
*314 net197
*315 net198
*316 net199
*317 net200
*318 net155
*319 net201
*320 net202
*321 net203
*322 net204
*323 net205
*324 net206
*325 net207
*326 net208
*327 net209
*328 net210
*329 net156
*330 net211
*331 net212
*332 net213
*333 net214
*334 la_data_out[64]
*335 la_data_out[65]
*336 la_data_out[66]
*337 la_data_out[67]
*338 la_data_out[68]
*339 la_data_out[69]
*340 net157
*341 la_data_out[70]
*342 la_data_out[71]
*343 la_data_out[72]
*344 la_data_out[73]
*345 la_data_out[74]
*346 la_data_out[75]
*347 la_data_out[76]
*348 net215
*349 net216
*350 net217
*351 net158
*352 net218
*353 net219
*354 net220
*355 net221
*356 net222
*357 net223
*358 net224
*359 net225
*360 net226
*361 net227
*362 net159
*363 net228
*364 net229
*365 net230
*366 net231
*367 net232
*368 net233
*369 net234
*370 net235
*371 net236
*372 net237
*373 net160
*374 la_oenb[0]
*375 la_oenb[100]
*376 la_oenb[101]
*377 la_oenb[102]
*378 la_oenb[103]
*379 la_oenb[104]
*380 la_oenb[105]
*381 la_oenb[106]
*382 la_oenb[107]
*383 la_oenb[108]
*384 la_oenb[109]
*385 la_oenb[10]
*386 la_oenb[110]
*387 la_oenb[111]
*388 la_oenb[112]
*389 la_oenb[113]
*390 la_oenb[114]
*391 la_oenb[115]
*392 la_oenb[116]
*393 la_oenb[117]
*394 la_oenb[118]
*395 la_oenb[119]
*396 la_oenb[11]
*397 la_oenb[120]
*398 la_oenb[121]
*399 la_oenb[122]
*400 la_oenb[123]
*401 la_oenb[124]
*402 la_oenb[125]
*403 la_oenb[126]
*404 la_oenb[127]
*405 la_oenb[12]
*406 la_oenb[13]
*407 la_oenb[14]
*408 la_oenb[15]
*409 la_oenb[16]
*410 la_oenb[17]
*411 la_oenb[18]
*412 la_oenb[19]
*413 la_oenb[1]
*414 la_oenb[20]
*415 la_oenb[21]
*416 la_oenb[22]
*417 la_oenb[23]
*418 la_oenb[24]
*419 la_oenb[25]
*420 la_oenb[26]
*421 la_oenb[27]
*422 la_oenb[28]
*423 la_oenb[29]
*424 la_oenb[2]
*425 la_oenb[30]
*426 la_oenb[31]
*427 la_oenb[32]
*428 la_oenb[33]
*429 la_oenb[34]
*430 la_oenb[35]
*431 la_oenb[36]
*432 la_oenb[37]
*433 la_oenb[38]
*434 la_oenb[39]
*435 la_oenb[3]
*436 la_oenb[40]
*437 la_oenb[41]
*438 la_oenb[42]
*439 la_oenb[43]
*440 la_oenb[44]
*441 la_oenb[45]
*442 la_oenb[46]
*443 la_oenb[47]
*444 la_oenb[48]
*445 la_oenb[49]
*446 la_oenb[4]
*447 la_oenb[50]
*448 la_oenb[51]
*449 la_oenb[52]
*450 la_oenb[53]
*451 la_oenb[54]
*452 la_oenb[55]
*453 la_oenb[56]
*454 la_oenb[57]
*455 la_oenb[58]
*456 la_oenb[59]
*457 la_oenb[5]
*458 la_oenb[60]
*459 la_oenb[61]
*460 la_oenb[62]
*461 la_oenb[63]
*462 la_oenb[64]
*463 la_oenb[65]
*464 la_oenb[66]
*465 la_oenb[67]
*466 la_oenb[68]
*467 la_oenb[69]
*468 la_oenb[6]
*469 la_oenb[70]
*470 la_oenb[71]
*471 la_oenb[72]
*472 la_oenb[73]
*473 la_oenb[74]
*474 la_oenb[75]
*475 la_oenb[76]
*476 la_oenb[77]
*477 la_oenb[78]
*478 la_oenb[79]
*479 la_oenb[7]
*480 la_oenb[80]
*481 la_oenb[81]
*482 la_oenb[82]
*483 la_oenb[83]
*484 la_oenb[84]
*485 la_oenb[85]
*486 la_oenb[86]
*487 la_oenb[87]
*488 la_oenb[88]
*489 la_oenb[89]
*490 la_oenb[8]
*491 la_oenb[90]
*492 la_oenb[91]
*493 la_oenb[92]
*494 la_oenb[93]
*495 la_oenb[94]
*496 la_oenb[95]
*497 la_oenb[96]
*498 la_oenb[97]
*499 la_oenb[98]
*500 la_oenb[99]
*501 la_oenb[9]
*502 out_1
*503 out_2
*504 out_3
*505 out_4
*506 out_5
*507 out_7
*508 rst
*509 serial_data_rlbp_out
*512 wb_clk_i
*513 wb_rst_i
*514 net254
*515 wbs_adr_i[0]
*516 wbs_adr_i[10]
*517 wbs_adr_i[11]
*518 wbs_adr_i[12]
*519 wbs_adr_i[13]
*520 wbs_adr_i[14]
*521 wbs_adr_i[15]
*522 wbs_adr_i[16]
*523 wbs_adr_i[17]
*524 wbs_adr_i[18]
*525 wbs_adr_i[19]
*526 wbs_adr_i[1]
*527 wbs_adr_i[20]
*528 wbs_adr_i[21]
*529 wbs_adr_i[22]
*530 wbs_adr_i[23]
*531 wbs_adr_i[24]
*532 wbs_adr_i[25]
*533 wbs_adr_i[26]
*534 wbs_adr_i[27]
*535 wbs_adr_i[28]
*536 wbs_adr_i[29]
*537 wbs_adr_i[2]
*538 wbs_adr_i[30]
*539 wbs_adr_i[31]
*540 wbs_adr_i[3]
*541 wbs_adr_i[4]
*542 wbs_adr_i[5]
*543 wbs_adr_i[6]
*544 wbs_adr_i[7]
*545 wbs_adr_i[8]
*546 wbs_adr_i[9]
*547 wbs_cyc_i
*548 wbs_dat_i[0]
*549 wbs_dat_i[10]
*550 wbs_dat_i[11]
*551 wbs_dat_i[12]
*552 wbs_dat_i[13]
*553 wbs_dat_i[14]
*554 wbs_dat_i[15]
*555 wbs_dat_i[16]
*556 wbs_dat_i[17]
*557 wbs_dat_i[18]
*558 wbs_dat_i[19]
*559 wbs_dat_i[1]
*560 wbs_dat_i[20]
*561 wbs_dat_i[21]
*562 wbs_dat_i[22]
*563 wbs_dat_i[23]
*564 wbs_dat_i[24]
*565 wbs_dat_i[25]
*566 wbs_dat_i[26]
*567 wbs_dat_i[27]
*568 wbs_dat_i[28]
*569 wbs_dat_i[29]
*570 wbs_dat_i[2]
*571 wbs_dat_i[30]
*572 wbs_dat_i[31]
*573 wbs_dat_i[3]
*574 wbs_dat_i[4]
*575 wbs_dat_i[5]
*576 wbs_dat_i[6]
*577 wbs_dat_i[7]
*578 wbs_dat_i[8]
*579 wbs_dat_i[9]
*580 net255
*581 net265
*582 net266
*583 net267
*584 net268
*585 net269
*586 net270
*587 net271
*588 net272
*589 net273
*590 net274
*591 net256
*592 net275
*593 net276
*594 net277
*595 net278
*596 net279
*597 net280
*598 net281
*599 net282
*600 net283
*601 net284
*602 net257
*603 net285
*604 net286
*605 net258
*606 net259
*607 net260
*608 net261
*609 net262
*610 net263
*611 net264
*612 wbs_sel_i[0]
*613 wbs_sel_i[1]
*614 wbs_sel_i[2]
*615 wbs_sel_i[3]
*616 wbs_stb_i
*617 wbs_we_i
*618 _0000_
*619 _0001_
*620 _0002_
*621 _0003_
*622 _0004_
*623 _0005_
*624 _0006_
*625 _0007_
*626 _0008_
*627 _0009_
*628 _0010_
*629 _0011_
*630 _0012_
*631 _0013_
*632 _0014_
*633 _0015_
*634 _0016_
*635 _0017_
*636 _0018_
*637 _0019_
*638 _0020_
*639 _0021_
*640 _0022_
*641 _0023_
*642 _0024_
*643 _0025_
*644 _0026_
*645 _0027_
*646 _0028_
*647 _0029_
*648 _0030_
*649 _0031_
*650 _0032_
*651 _0033_
*652 _0034_
*653 _0035_
*654 _0036_
*655 _0037_
*656 _0038_
*657 _0039_
*658 _0040_
*659 _0041_
*660 _0042_
*661 _0043_
*662 _0044_
*663 _0045_
*664 _0046_
*665 _0047_
*666 _0048_
*667 _0049_
*668 _0050_
*669 _0051_
*670 _0052_
*671 _0053_
*672 _0054_
*673 _0055_
*674 _0056_
*675 _0057_
*676 _0058_
*677 _0059_
*678 _0060_
*679 _0061_
*680 _0062_
*681 _0063_
*682 _0064_
*683 _0065_
*684 _0066_
*685 _0067_
*686 _0068_
*687 _0069_
*688 _0070_
*689 _0071_
*690 _0072_
*691 _0073_
*692 _0074_
*693 _0075_
*694 _0076_
*695 _0077_
*696 _0078_
*697 _0079_
*698 _0080_
*699 _0081_
*700 _0082_
*701 _0083_
*702 _0084_
*703 _0085_
*704 _0086_
*705 _0087_
*706 _0088_
*707 _0089_
*708 _0090_
*709 _0091_
*710 _0092_
*711 _0093_
*712 _0094_
*713 _0095_
*714 _0096_
*715 _0097_
*716 _0098_
*717 _0099_
*718 _0100_
*719 _0101_
*720 _0102_
*721 _0103_
*722 _0104_
*723 _0105_
*724 _0106_
*725 _0107_
*726 _0108_
*727 _0109_
*728 _0110_
*729 _0111_
*730 _0112_
*731 _0113_
*732 _0114_
*733 _0115_
*734 _0116_
*735 _0117_
*736 _0118_
*737 _0119_
*738 _0120_
*739 _0121_
*740 _0122_
*741 _0123_
*742 _0124_
*743 _0125_
*744 _0126_
*745 _0127_
*746 _0128_
*747 _0129_
*748 _0130_
*749 _0131_
*750 _0132_
*751 _0133_
*752 _0134_
*753 _0135_
*754 _0136_
*755 _0137_
*756 _0138_
*757 _0139_
*758 _0140_
*759 _0141_
*760 _0142_
*761 _0143_
*762 _0144_
*763 _0145_
*764 _0146_
*765 _0147_
*766 _0148_
*767 _0149_
*768 _0150_
*769 _0151_
*770 _0152_
*771 _0153_
*772 _0154_
*773 _0155_
*774 _0156_
*775 _0157_
*776 _0158_
*777 _0159_
*778 _0160_
*779 _0161_
*780 _0162_
*781 _0163_
*782 _0164_
*783 _0165_
*784 _0166_
*785 _0167_
*786 _0168_
*787 _0169_
*788 _0170_
*789 _0171_
*790 _0172_
*791 _0173_
*792 _0174_
*793 _0175_
*794 _0176_
*795 _0177_
*796 _0178_
*797 _0179_
*798 _0180_
*799 _0181_
*800 _0182_
*801 _0183_
*802 _0184_
*803 _0185_
*804 _0186_
*805 _0187_
*806 _0188_
*807 _0189_
*808 _0190_
*809 _0191_
*810 _0192_
*811 _0193_
*812 _0194_
*813 _0195_
*814 _0196_
*815 _0197_
*816 _0198_
*817 _0199_
*818 _0200_
*819 _0201_
*820 _0202_
*821 _0203_
*822 _0204_
*823 _0205_
*824 _0206_
*825 _0207_
*826 _0208_
*827 _0209_
*828 _0210_
*829 _0211_
*830 _0212_
*831 _0213_
*832 _0214_
*833 _0215_
*834 _0216_
*835 _0217_
*836 _0218_
*837 _0219_
*838 _0220_
*839 _0221_
*840 _0222_
*841 _0223_
*842 _0224_
*843 _0225_
*844 _0226_
*845 _0227_
*846 _0228_
*847 _0229_
*848 _0230_
*849 _0231_
*850 _0232_
*851 _0233_
*852 _0234_
*853 _0235_
*854 _0236_
*855 _0237_
*856 _0238_
*857 _0239_
*858 _0240_
*859 _0241_
*860 _0242_
*861 _0243_
*862 _0244_
*863 _0245_
*864 _0246_
*865 _0247_
*866 _0248_
*867 _0249_
*868 _0250_
*869 _0251_
*870 _0252_
*871 _0253_
*872 _0254_
*873 _0255_
*874 _0256_
*875 _0257_
*876 _0258_
*877 _0259_
*878 _0260_
*879 _0261_
*880 _0262_
*881 _0263_
*882 _0264_
*883 _0265_
*884 _0266_
*885 _0267_
*886 _0268_
*887 _0269_
*888 _0270_
*889 _0271_
*890 _0272_
*891 _0273_
*892 _0274_
*893 _0275_
*894 _0276_
*895 _0277_
*896 _0278_
*897 _0279_
*898 _0280_
*899 _0281_
*900 _0282_
*901 _0283_
*902 _0284_
*903 _0285_
*904 _0286_
*905 _0287_
*906 _0288_
*907 _0289_
*908 _0290_
*909 _0291_
*910 _0292_
*911 _0293_
*912 _0294_
*913 _0295_
*914 _0296_
*915 _0297_
*916 _0298_
*917 _0299_
*918 _0300_
*919 _0301_
*920 _0302_
*921 _0303_
*922 _0304_
*923 _0305_
*924 _0306_
*925 _0307_
*926 _0308_
*927 _0309_
*928 _0310_
*929 _0311_
*930 _0312_
*931 _0313_
*932 _0314_
*933 _0315_
*934 _0316_
*935 _0317_
*936 _0318_
*937 _0319_
*938 _0320_
*939 _0321_
*940 _0322_
*941 _0323_
*942 _0324_
*943 _0325_
*944 _0326_
*945 _0327_
*946 _0328_
*947 _0329_
*948 _0330_
*949 _0331_
*950 _0332_
*951 _0333_
*952 _0334_
*953 _0335_
*954 _0336_
*955 _0337_
*956 _0338_
*957 _0339_
*958 _0340_
*959 _0341_
*960 _0342_
*961 _0343_
*962 _0344_
*963 _0345_
*964 _0346_
*965 _0347_
*966 _0348_
*967 _0349_
*968 _0350_
*969 _0351_
*970 _0352_
*971 _0353_
*972 _0354_
*973 _0355_
*974 _0356_
*975 _0357_
*976 _0358_
*977 _0359_
*978 _0360_
*979 _0361_
*980 _0362_
*981 _0363_
*982 _0364_
*983 _0365_
*984 _0366_
*985 _0367_
*986 _0368_
*987 _0369_
*988 _0370_
*989 _0371_
*990 _0372_
*991 _0373_
*992 _0374_
*993 _0375_
*994 _0376_
*995 _0377_
*996 _0378_
*997 _0379_
*998 _0380_
*999 _0381_
*1000 _0382_
*1001 _0383_
*1002 _0384_
*1003 _0385_
*1004 _0386_
*1005 _0387_
*1006 _0388_
*1007 _0389_
*1008 _0390_
*1009 _0391_
*1010 _0392_
*1011 _0393_
*1012 _0394_
*1013 _0395_
*1014 _0396_
*1015 _0397_
*1016 _0398_
*1017 _0399_
*1018 _0400_
*1019 _0401_
*1020 _0402_
*1021 _0403_
*1022 _0404_
*1023 _0405_
*1024 _0406_
*1025 _0407_
*1026 _0408_
*1027 _0409_
*1028 _0410_
*1029 _0411_
*1030 _0412_
*1031 _0413_
*1032 _0414_
*1033 _0415_
*1034 _0416_
*1035 _0417_
*1036 _0418_
*1037 _0419_
*1038 _0420_
*1039 _0421_
*1040 _0422_
*1041 _0423_
*1042 _0424_
*1043 _0425_
*1044 _0426_
*1045 _0427_
*1046 _0428_
*1047 _0429_
*1048 _0430_
*1049 _0431_
*1050 _0432_
*1051 _0433_
*1052 _0434_
*1053 _0435_
*1054 _0436_
*1055 _0437_
*1056 _0438_
*1057 _0439_
*1058 _0440_
*1059 _0441_
*1060 _0442_
*1061 _0443_
*1062 _0444_
*1063 _0445_
*1064 _0446_
*1065 _0447_
*1066 _0448_
*1067 _0449_
*1068 _0450_
*1069 _0451_
*1070 _0452_
*1071 _0453_
*1072 _0454_
*1073 _0455_
*1074 _0456_
*1075 _0457_
*1076 _0458_
*1077 _0459_
*1078 _0460_
*1079 _0461_
*1080 _0462_
*1081 _0463_
*1082 _0464_
*1083 _0465_
*1084 _0466_
*1085 _0467_
*1086 _0468_
*1087 _0469_
*1088 _0470_
*1089 _0471_
*1090 _0472_
*1091 _0473_
*1092 _0474_
*1093 _0475_
*1094 _0476_
*1095 _0477_
*1096 _0478_
*1097 _0479_
*1098 _0480_
*1099 _0481_
*1100 _0482_
*1101 _0483_
*1102 _0484_
*1103 _0485_
*1104 _0486_
*1105 _0487_
*1106 _0488_
*1107 _0489_
*1108 _0490_
*1109 _0491_
*1110 _0492_
*1111 _0493_
*1112 _0494_
*1113 _0495_
*1114 _0496_
*1115 _0497_
*1116 _0498_
*1117 _0499_
*1118 _0500_
*1119 _0501_
*1120 _0502_
*1121 _0503_
*1122 _0504_
*1123 _0505_
*1124 _0506_
*1125 _0507_
*1126 _0508_
*1127 _0509_
*1128 _0510_
*1129 _0511_
*1130 _0512_
*1131 _0513_
*1132 _0514_
*1133 _0515_
*1134 _0516_
*1135 _0517_
*1136 _0518_
*1137 _0519_
*1138 _0520_
*1139 _0521_
*1140 _0522_
*1141 _0523_
*1142 _0524_
*1143 _0525_
*1144 _0526_
*1145 _0527_
*1146 _0528_
*1147 _0529_
*1148 _0530_
*1149 _0531_
*1150 _0532_
*1151 _0533_
*1152 _0534_
*1153 _0535_
*1154 _0536_
*1155 _0537_
*1156 _0538_
*1157 _0539_
*1158 _0540_
*1159 _0541_
*1160 _0542_
*1161 _0543_
*1162 _0544_
*1163 _0545_
*1164 _0546_
*1165 _0547_
*1166 _0548_
*1167 _0549_
*1168 _0550_
*1169 _0551_
*1170 _0552_
*1171 _0553_
*1172 _0554_
*1173 _0555_
*1174 _0556_
*1175 _0557_
*1176 _0558_
*1177 _0559_
*1178 _0560_
*1179 _0561_
*1180 _0562_
*1181 _0563_
*1182 _0564_
*1183 _0565_
*1184 _0566_
*1185 _0567_
*1186 _0568_
*1187 _0569_
*1188 _0570_
*1189 _0571_
*1190 _0572_
*1191 _0573_
*1192 _0574_
*1193 _0575_
*1194 _0576_
*1195 _0577_
*1196 _0578_
*1197 _0579_
*1198 _0580_
*1199 _0581_
*1200 _0582_
*1201 _0583_
*1202 _0584_
*1203 _0585_
*1204 _0586_
*1205 _0587_
*1206 _0588_
*1207 _0589_
*1208 _0590_
*1209 _0591_
*1210 _0592_
*1211 _0593_
*1212 _0594_
*1213 _0595_
*1214 _0596_
*1215 _0597_
*1216 _0598_
*1217 _0599_
*1218 _0600_
*1219 _0601_
*1220 _0602_
*1221 _0603_
*1222 _0604_
*1223 _0605_
*1224 _0606_
*1225 _0607_
*1226 _0608_
*1227 _0609_
*1228 _0610_
*1229 _0611_
*1230 _0612_
*1231 _0613_
*1232 _0614_
*1233 _0615_
*1234 _0616_
*1235 _0617_
*1236 _0618_
*1237 _0619_
*1238 _0620_
*1239 _0621_
*1240 _0622_
*1241 _0623_
*1242 _0624_
*1243 _0625_
*1244 _0626_
*1245 _0627_
*1246 _0628_
*1247 _0629_
*1248 _0630_
*1249 _0631_
*1250 _0632_
*1251 _0633_
*1252 _0634_
*1253 _0635_
*1254 _0636_
*1255 _0637_
*1256 _0638_
*1257 _0639_
*1258 _0640_
*1259 _0641_
*1260 _0642_
*1261 _0643_
*1262 _0644_
*1263 _0645_
*1264 _0646_
*1265 _0647_
*1266 _0648_
*1267 _0649_
*1268 _0650_
*1269 _0651_
*1270 _0652_
*1271 _0653_
*1272 _0654_
*1273 _0655_
*1274 _0656_
*1275 _0657_
*1276 _0658_
*1277 _0659_
*1278 _0660_
*1279 _0661_
*1280 _0662_
*1281 _0663_
*1282 _0664_
*1283 _0665_
*1284 _0666_
*1285 _0667_
*1286 _0668_
*1287 _0669_
*1288 _0670_
*1289 _0671_
*1290 _0672_
*1291 _0673_
*1292 _0674_
*1293 _0675_
*1294 _0676_
*1295 _0677_
*1296 _0678_
*1297 _0679_
*1298 _0680_
*1299 _0681_
*1300 _0682_
*1301 _0683_
*1302 _0684_
*1303 _0685_
*1304 _0686_
*1305 _0687_
*1306 _0688_
*1307 _0689_
*1308 _0690_
*1309 _0691_
*1310 _0692_
*1311 _0693_
*1312 _0694_
*1313 _0695_
*1314 _0696_
*1315 _0697_
*1316 _0698_
*1317 _0699_
*1318 _0700_
*1319 _0701_
*1320 _0702_
*1321 _0703_
*1322 _0704_
*1323 _0705_
*1324 _0706_
*1325 _0707_
*1326 _0708_
*1327 _0709_
*1328 _0710_
*1329 _0711_
*1330 _0712_
*1331 _0713_
*1332 _0714_
*1333 _0715_
*1334 _0716_
*1335 _0717_
*1336 _0718_
*1337 _0719_
*1338 _0720_
*1339 _0721_
*1340 _0722_
*1341 _0723_
*1342 _0724_
*1343 _0725_
*1344 _0726_
*1345 _0727_
*1346 _0728_
*1347 _0729_
*1348 _0730_
*1349 _0731_
*1350 _0732_
*1351 _0733_
*1352 _0734_
*1353 _0735_
*1354 _0736_
*1355 _0737_
*1356 _0738_
*1357 _0739_
*1358 _0740_
*1359 _0741_
*1360 _0742_
*1361 _0743_
*1362 _0744_
*1363 _0745_
*1364 _0746_
*1365 _0747_
*1366 _0748_
*1367 _0749_
*1368 _0750_
*1369 _0751_
*1370 _0752_
*1371 _0753_
*1372 _0754_
*1373 _0755_
*1374 _0756_
*1375 _0757_
*1376 _0758_
*1377 _0759_
*1378 _0760_
*1379 _0761_
*1380 _0762_
*1381 _0763_
*1382 _0764_
*1383 _0765_
*1384 _0766_
*1385 _0767_
*1386 _0768_
*1387 _0769_
*1388 _0770_
*1389 _0771_
*1390 _0772_
*1391 _0773_
*1392 _0774_
*1393 _0775_
*1394 _0776_
*1395 _0777_
*1396 _0778_
*1397 _0779_
*1398 _0780_
*1399 _0781_
*1400 _0782_
*1401 _0783_
*1402 _0784_
*1403 _0785_
*1404 _0786_
*1405 _0787_
*1406 _0788_
*1407 _0789_
*1408 _0790_
*1409 _0791_
*1410 _0792_
*1411 _0793_
*1412 _0794_
*1413 _0795_
*1414 _0796_
*1415 _0797_
*1416 _0798_
*1417 _0799_
*1418 _0800_
*1419 _0801_
*1420 _0802_
*1421 _0803_
*1422 _0804_
*1423 _0805_
*1424 _0806_
*1425 _0807_
*1426 _0808_
*1427 _0809_
*1428 _0810_
*1429 _0811_
*1430 _0812_
*1431 _0813_
*1432 _0814_
*1433 _0815_
*1434 _0816_
*1435 _0817_
*1436 _0818_
*1437 _0819_
*1438 _0820_
*1439 _0821_
*1440 _0822_
*1441 _0823_
*1442 _0824_
*1443 _0825_
*1444 _0826_
*1445 _0827_
*1446 _0828_
*1447 _0829_
*1448 _0830_
*1449 _0831_
*1450 _0832_
*1451 _0833_
*1452 _0834_
*1453 _0835_
*1454 _0836_
*1455 _0837_
*1456 _0838_
*1457 _0839_
*1458 _0840_
*1459 _0841_
*1460 _0842_
*1461 _0843_
*1462 _0844_
*1463 _0845_
*1464 _0846_
*1465 _0847_
*1466 _0848_
*1467 _0849_
*1468 _0850_
*1469 _0851_
*1470 _0852_
*1471 _0853_
*1472 _0854_
*1473 _0855_
*1474 _0856_
*1475 _0857_
*1476 _0858_
*1477 _0859_
*1478 _0860_
*1479 _0861_
*1480 _0862_
*1481 _0863_
*1482 _0864_
*1483 _0865_
*1484 _0866_
*1485 _0867_
*1486 _0868_
*1487 _0869_
*1488 _0870_
*1489 _0871_
*1490 _0872_
*1491 _0873_
*1492 _0874_
*1493 _0875_
*1494 _0876_
*1495 _0877_
*1496 _0878_
*1497 _0879_
*1498 _0880_
*1499 _0881_
*1500 _0882_
*1501 _0883_
*1502 _0884_
*1503 _0885_
*1504 _0886_
*1505 _0887_
*1506 _0888_
*1507 _0889_
*1508 _0890_
*1509 _0891_
*1510 _0892_
*1511 _0893_
*1512 _0894_
*1513 _0895_
*1514 _0896_
*1515 _0897_
*1516 _0898_
*1517 _0899_
*1518 _0900_
*1519 _0901_
*1520 _0902_
*1521 _0903_
*1522 _0904_
*1523 _0905_
*1524 _0906_
*1525 _0907_
*1526 _0908_
*1527 _0909_
*1528 _0910_
*1529 _0911_
*1530 _0912_
*1531 _0913_
*1532 _0914_
*1533 _0915_
*1534 _0916_
*1535 _0917_
*1536 _0918_
*1537 _0919_
*1538 _0920_
*1539 _0921_
*1540 _0922_
*1541 _0923_
*1542 _0924_
*1543 _0925_
*1544 _0926_
*1545 _0927_
*1546 _0928_
*1547 _0929_
*1548 _0930_
*1549 _0931_
*1550 _0932_
*1551 _0933_
*1552 _0934_
*1553 _0935_
*1554 _0936_
*1555 _0937_
*1556 _0938_
*1557 _0939_
*1558 _0940_
*1559 _0941_
*1560 _0942_
*1561 _0943_
*1562 _0944_
*1563 _0945_
*1564 _0946_
*1565 _0947_
*1566 _0948_
*1567 _0949_
*1568 _0950_
*1569 _0951_
*1570 _0952_
*1571 _0953_
*1572 _0954_
*1573 _0955_
*1574 _0956_
*1575 _0957_
*1576 _0958_
*1577 _0959_
*1578 _0960_
*1579 _0961_
*1580 _0962_
*1581 _0963_
*1582 _0964_
*1583 _0965_
*1584 _0966_
*1585 _0967_
*1586 _0968_
*1587 _0969_
*1588 _0970_
*1589 _0971_
*1590 _0972_
*1591 _0973_
*1592 _0974_
*1593 _0975_
*1594 _0976_
*1595 _0977_
*1596 _0978_
*1597 _0979_
*1598 _0980_
*1599 _0981_
*1600 _0982_
*1601 _0983_
*1602 _0984_
*1603 _0985_
*1604 _0986_
*1605 _0987_
*1606 _0988_
*1607 _0989_
*1608 _0990_
*1609 _0991_
*1610 _0992_
*1611 _0993_
*1612 _0994_
*1613 _0995_
*1614 _0996_
*1615 _0997_
*1616 _0998_
*1617 _0999_
*1618 _1000_
*1619 _1001_
*1620 _1002_
*1621 _1003_
*1622 _1004_
*1623 _1005_
*1624 _1006_
*1625 _1007_
*1626 _1008_
*1627 _1009_
*1628 _1010_
*1629 _1011_
*1630 _1012_
*1631 _1013_
*1632 _1014_
*1633 _1015_
*1634 _1016_
*1635 _1017_
*1636 _1018_
*1637 _1019_
*1638 _1020_
*1639 _1021_
*1640 clknet_0_wb_clk_i
*1641 clknet_4_0_0_wb_clk_i
*1642 clknet_4_10_0_wb_clk_i
*1643 clknet_4_11_0_wb_clk_i
*1644 clknet_4_12_0_wb_clk_i
*1645 clknet_4_13_0_wb_clk_i
*1646 clknet_4_14_0_wb_clk_i
*1647 clknet_4_15_0_wb_clk_i
*1648 clknet_4_1_0_wb_clk_i
*1649 clknet_4_2_0_wb_clk_i
*1650 clknet_4_3_0_wb_clk_i
*1651 clknet_4_4_0_wb_clk_i
*1652 clknet_4_5_0_wb_clk_i
*1653 clknet_4_6_0_wb_clk_i
*1654 clknet_4_7_0_wb_clk_i
*1655 clknet_4_8_0_wb_clk_i
*1656 clknet_4_9_0_wb_clk_i
*1657 net1
*1658 net10
*1659 net11
*1660 net12
*1661 net13
*1662 net14
*1663 net15
*1664 net16
*1665 net17
*1666 net18
*1667 net19
*1668 net2
*1669 net20
*1670 net21
*1671 net22
*1672 net23
*1673 net24
*1674 net25
*1675 net26
*1676 net27
*1677 net28
*1678 net29
*1679 net3
*1680 net30
*1681 net31
*1682 net32
*1683 net33
*1684 net34
*1685 net35
*1686 net36
*1687 net37
*1688 net38
*1689 net39
*1690 net4
*1691 net40
*1692 net41
*1693 net42
*1694 net43
*1695 net44
*1696 net45
*1697 net46
*1698 net47
*1699 net48
*1700 net49
*1701 net5
*1702 net50
*1703 net51
*1704 net52
*1705 net53
*1706 net54
*1707 net55
*1708 net56
*1709 net57
*1710 net58
*1711 net59
*1712 net6
*1713 net60
*1714 net61
*1715 net62
*1716 net63
*1717 net64
*1718 net65
*1719 net66
*1720 net67
*1721 net68
*1722 net69
*1723 net7
*1724 net70
*1725 net71
*1726 net8
*1727 net9
*1728 rlbp_inst0\.count_net\[0\]
*1729 rlbp_inst0\.count_net\[10\]
*1730 rlbp_inst0\.count_net\[11\]
*1731 rlbp_inst0\.count_net\[1\]
*1732 rlbp_inst0\.count_net\[2\]
*1733 rlbp_inst0\.count_net\[3\]
*1734 rlbp_inst0\.count_net\[4\]
*1735 rlbp_inst0\.count_net\[5\]
*1736 rlbp_inst0\.count_net\[6\]
*1737 rlbp_inst0\.count_net\[7\]
*1738 rlbp_inst0\.count_net\[8\]
*1739 rlbp_inst0\.count_net\[9\]
*1740 rlbp_inst0\.inst1\.next_state_rlbp\[0\]
*1741 rlbp_inst0\.inst1\.next_state_rlbp\[1\]
*1742 rlbp_inst0\.inst1\.next_state_rlbp\[2\]
*1743 rlbp_inst0\.inst1\.next_state_rlbp\[3\]
*1744 rlbp_inst0\.inst1\.next_state_rlbp\[4\]
*1745 rlbp_inst0\.inst1\.state_rlbp\[0\]
*1746 rlbp_inst0\.inst1\.state_rlbp\[1\]
*1747 rlbp_inst0\.inst1\.state_rlbp\[2\]
*1748 rlbp_inst0\.inst1\.state_rlbp\[3\]
*1749 rlbp_inst0\.inst1\.state_rlbp\[4\]
*1750 rlbp_inst0\.inst10\.next_state\[0\]
*1751 rlbp_inst0\.inst10\.next_state\[1\]
*1752 rlbp_inst0\.inst10\.state\[0\]
*1753 rlbp_inst0\.inst10\.state\[1\]
*1754 rlbp_inst0\.inst10\.time_down_7\[0\]
*1755 rlbp_inst0\.inst10\.time_down_7\[10\]
*1756 rlbp_inst0\.inst10\.time_down_7\[1\]
*1757 rlbp_inst0\.inst10\.time_down_7\[2\]
*1758 rlbp_inst0\.inst10\.time_down_7\[3\]
*1759 rlbp_inst0\.inst10\.time_down_7\[4\]
*1760 rlbp_inst0\.inst10\.time_down_7\[5\]
*1761 rlbp_inst0\.inst10\.time_down_7\[6\]
*1762 rlbp_inst0\.inst10\.time_down_7\[7\]
*1763 rlbp_inst0\.inst10\.time_down_7\[8\]
*1764 rlbp_inst0\.inst10\.time_down_7\[9\]
*1765 rlbp_inst0\.inst10\.time_up_7\[0\]
*1766 rlbp_inst0\.inst10\.time_up_7\[10\]
*1767 rlbp_inst0\.inst10\.time_up_7\[1\]
*1768 rlbp_inst0\.inst10\.time_up_7\[2\]
*1769 rlbp_inst0\.inst10\.time_up_7\[3\]
*1770 rlbp_inst0\.inst10\.time_up_7\[4\]
*1771 rlbp_inst0\.inst10\.time_up_7\[5\]
*1772 rlbp_inst0\.inst10\.time_up_7\[6\]
*1773 rlbp_inst0\.inst10\.time_up_7\[7\]
*1774 rlbp_inst0\.inst10\.time_up_7\[8\]
*1775 rlbp_inst0\.inst10\.time_up_7\[9\]
*1776 rlbp_inst0\.inst4\.i\[0\]
*1777 rlbp_inst0\.inst4\.i\[1\]
*1778 rlbp_inst0\.inst4\.i\[2\]
*1779 rlbp_inst0\.inst4\.i\[3\]
*1780 rlbp_inst0\.inst5\.next_state\[0\]
*1781 rlbp_inst0\.inst5\.next_state\[1\]
*1782 rlbp_inst0\.inst5\.state\[0\]
*1783 rlbp_inst0\.inst5\.state\[1\]
*1784 rlbp_inst0\.inst5\.time_up_1\[0\]
*1785 rlbp_inst0\.inst5\.time_up_1\[10\]
*1786 rlbp_inst0\.inst5\.time_up_1\[1\]
*1787 rlbp_inst0\.inst5\.time_up_1\[2\]
*1788 rlbp_inst0\.inst5\.time_up_1\[3\]
*1789 rlbp_inst0\.inst5\.time_up_1\[4\]
*1790 rlbp_inst0\.inst5\.time_up_1\[5\]
*1791 rlbp_inst0\.inst5\.time_up_1\[6\]
*1792 rlbp_inst0\.inst5\.time_up_1\[7\]
*1793 rlbp_inst0\.inst5\.time_up_1\[8\]
*1794 rlbp_inst0\.inst5\.time_up_1\[9\]
*1795 rlbp_inst0\.inst6\.next_state\[0\]
*1796 rlbp_inst0\.inst6\.next_state\[1\]
*1797 rlbp_inst0\.inst6\.state\[0\]
*1798 rlbp_inst0\.inst6\.state\[1\]
*1799 rlbp_inst0\.inst6\.time_down_2\[0\]
*1800 rlbp_inst0\.inst6\.time_down_2\[10\]
*1801 rlbp_inst0\.inst6\.time_down_2\[1\]
*1802 rlbp_inst0\.inst6\.time_down_2\[2\]
*1803 rlbp_inst0\.inst6\.time_down_2\[3\]
*1804 rlbp_inst0\.inst6\.time_down_2\[4\]
*1805 rlbp_inst0\.inst6\.time_down_2\[5\]
*1806 rlbp_inst0\.inst6\.time_down_2\[6\]
*1807 rlbp_inst0\.inst6\.time_down_2\[7\]
*1808 rlbp_inst0\.inst6\.time_down_2\[8\]
*1809 rlbp_inst0\.inst6\.time_down_2\[9\]
*1810 rlbp_inst0\.inst6\.time_up_2\[0\]
*1811 rlbp_inst0\.inst6\.time_up_2\[10\]
*1812 rlbp_inst0\.inst6\.time_up_2\[1\]
*1813 rlbp_inst0\.inst6\.time_up_2\[2\]
*1814 rlbp_inst0\.inst6\.time_up_2\[3\]
*1815 rlbp_inst0\.inst6\.time_up_2\[4\]
*1816 rlbp_inst0\.inst6\.time_up_2\[5\]
*1817 rlbp_inst0\.inst6\.time_up_2\[6\]
*1818 rlbp_inst0\.inst6\.time_up_2\[7\]
*1819 rlbp_inst0\.inst6\.time_up_2\[8\]
*1820 rlbp_inst0\.inst6\.time_up_2\[9\]
*1821 rlbp_inst0\.inst7\.next_state\[0\]
*1822 rlbp_inst0\.inst7\.next_state\[1\]
*1823 rlbp_inst0\.inst7\.state\[0\]
*1824 rlbp_inst0\.inst7\.state\[1\]
*1825 rlbp_inst0\.inst7\.time_down_3\[0\]
*1826 rlbp_inst0\.inst7\.time_down_3\[10\]
*1827 rlbp_inst0\.inst7\.time_down_3\[1\]
*1828 rlbp_inst0\.inst7\.time_down_3\[2\]
*1829 rlbp_inst0\.inst7\.time_down_3\[3\]
*1830 rlbp_inst0\.inst7\.time_down_3\[4\]
*1831 rlbp_inst0\.inst7\.time_down_3\[5\]
*1832 rlbp_inst0\.inst7\.time_down_3\[6\]
*1833 rlbp_inst0\.inst7\.time_down_3\[7\]
*1834 rlbp_inst0\.inst7\.time_down_3\[8\]
*1835 rlbp_inst0\.inst7\.time_down_3\[9\]
*1836 rlbp_inst0\.inst7\.time_up_3\[0\]
*1837 rlbp_inst0\.inst7\.time_up_3\[10\]
*1838 rlbp_inst0\.inst7\.time_up_3\[1\]
*1839 rlbp_inst0\.inst7\.time_up_3\[2\]
*1840 rlbp_inst0\.inst7\.time_up_3\[3\]
*1841 rlbp_inst0\.inst7\.time_up_3\[4\]
*1842 rlbp_inst0\.inst7\.time_up_3\[5\]
*1843 rlbp_inst0\.inst7\.time_up_3\[6\]
*1844 rlbp_inst0\.inst7\.time_up_3\[7\]
*1845 rlbp_inst0\.inst7\.time_up_3\[8\]
*1846 rlbp_inst0\.inst7\.time_up_3\[9\]
*1847 rlbp_inst0\.inst8\.next_state\[0\]
*1848 rlbp_inst0\.inst8\.next_state\[1\]
*1849 rlbp_inst0\.inst8\.state\[0\]
*1850 rlbp_inst0\.inst8\.state\[1\]
*1851 rlbp_inst0\.inst8\.time_down_4\[0\]
*1852 rlbp_inst0\.inst8\.time_down_4\[10\]
*1853 rlbp_inst0\.inst8\.time_down_4\[1\]
*1854 rlbp_inst0\.inst8\.time_down_4\[2\]
*1855 rlbp_inst0\.inst8\.time_down_4\[3\]
*1856 rlbp_inst0\.inst8\.time_down_4\[4\]
*1857 rlbp_inst0\.inst8\.time_down_4\[5\]
*1858 rlbp_inst0\.inst8\.time_down_4\[6\]
*1859 rlbp_inst0\.inst8\.time_down_4\[7\]
*1860 rlbp_inst0\.inst8\.time_down_4\[8\]
*1861 rlbp_inst0\.inst8\.time_down_4\[9\]
*1862 rlbp_inst0\.inst8\.time_up_4\[0\]
*1863 rlbp_inst0\.inst8\.time_up_4\[10\]
*1864 rlbp_inst0\.inst8\.time_up_4\[1\]
*1865 rlbp_inst0\.inst8\.time_up_4\[2\]
*1866 rlbp_inst0\.inst8\.time_up_4\[3\]
*1867 rlbp_inst0\.inst8\.time_up_4\[4\]
*1868 rlbp_inst0\.inst8\.time_up_4\[5\]
*1869 rlbp_inst0\.inst8\.time_up_4\[6\]