*SPEF "ieee 1481-1999"
*DESIGN "rlbp_macro"
*DATE "11:11:11 Fri 11 11, 1111"
*VENDOR "OpenRCX"
*PROGRAM "Parallel Extraction"
*VERSION "1.0"
*DESIGN_FLOW "NAME_SCOPE LOCAL" "PIN_CAP NONE"
*DIVIDER /
*DELIMITER :
*BUS_DELIMITER []
*T_UNIT 1 NS
*C_UNIT 1 PF
*R_UNIT 1 OHM
*L_UNIT 1 HENRY

*NAME_MAP
*1 io_in[0]
*2 io_in[10]
*3 io_in[11]
*4 io_in[12]
*5 io_in[13]
*6 io_in[14]
*7 io_in[15]
*8 io_in[16]
*9 io_in[17]
*10 io_in[18]
*11 io_in[19]
*12 io_in[1]
*13 io_in[20]
*14 io_in[21]
*15 io_in[22]
*16 io_in[23]
*17 io_in[24]
*18 io_in[25]
*19 io_in[26]
*20 io_in[27]
*21 io_in[28]
*22 io_in[29]
*23 io_in[2]
*24 io_in[30]
*25 io_in[31]
*26 io_in[32]
*27 io_in[33]
*28 io_in[34]
*29 io_in[35]
*30 io_in[36]
*31 io_in[37]
*32 io_in[3]
*33 io_in[4]
*34 io_in[5]
*35 io_in[6]
*36 io_in[7]
*37 io_in[8]
*38 io_in[9]
*39 net64
*40 net74
*41 net75
*42 net76
*43 net77
*44 net78
*45 net79
*46 net80
*47 net81
*48 net82
*49 net83
*50 net65
*51 net84
*52 net85
*53 net86
*54 net87
*55 net88
*56 net89
*57 net90
*58 net91
*59 net92
*60 net93
*61 net66
*62 net94
*63 net95
*64 net96
*65 net97
*66 net98
*67 net99
*68 net100
*69 net101
*70 net67
*71 net68
*72 net69
*73 net70
*74 net71
*75 net72
*76 net73
*77 net102
*78 net112
*79 net113
*80 net114
*81 net115
*82 net116
*83 net117
*84 net118
*85 net119
*86 net120
*87 net121
*88 net103
*89 net122
*90 net123
*91 net124
*92 net125
*93 net126
*94 net127
*95 net128
*96 net129
*97 net130
*98 net131
*99 net104
*100 net132
*101 net133
*102 net134
*103 net135
*104 net136
*105 net137
*106 net138
*107 net139
*108 net105
*109 net106
*110 net107
*111 net108
*112 net109
*113 net110
*114 net111
*115 net140
*116 net141
*117 net142
*118 la_data_in[0]
*119 la_data_in[100]
*120 la_data_in[101]
*121 la_data_in[102]
*122 la_data_in[103]
*123 la_data_in[104]
*124 la_data_in[105]
*125 la_data_in[106]
*126 la_data_in[107]
*127 la_data_in[108]
*128 la_data_in[109]
*129 la_data_in[10]
*130 la_data_in[110]
*131 la_data_in[111]
*132 la_data_in[112]
*133 la_data_in[113]
*134 la_data_in[114]
*135 la_data_in[115]
*136 la_data_in[116]
*137 la_data_in[117]
*138 la_data_in[118]
*139 la_data_in[119]
*140 la_data_in[11]
*141 la_data_in[120]
*142 la_data_in[121]
*143 la_data_in[122]
*144 la_data_in[123]
*145 la_data_in[124]
*146 la_data_in[125]
*147 la_data_in[126]
*148 la_data_in[127]
*149 la_data_in[12]
*150 la_data_in[13]
*151 la_data_in[14]
*152 la_data_in[15]
*153 la_data_in[16]
*154 la_data_in[17]
*155 la_data_in[18]
*156 la_data_in[19]
*157 la_data_in[1]
*158 la_data_in[20]
*159 la_data_in[21]
*160 la_data_in[22]
*161 la_data_in[23]
*162 la_data_in[24]
*163 la_data_in[25]
*164 la_data_in[26]
*165 la_data_in[27]
*166 la_data_in[28]
*167 la_data_in[29]
*168 la_data_in[2]
*169 la_data_in[30]
*170 la_data_in[31]
*171 la_data_in[32]
*172 la_data_in[33]
*173 la_data_in[34]
*174 la_data_in[35]
*175 la_data_in[36]
*176 la_data_in[37]
*177 la_data_in[38]
*178 la_data_in[39]
*179 la_data_in[3]
*180 la_data_in[40]
*181 la_data_in[41]
*182 la_data_in[42]
*183 la_data_in[43]
*184 la_data_in[44]
*185 la_data_in[45]
*186 la_data_in[46]
*187 la_data_in[47]
*188 la_data_in[48]
*189 la_data_in[49]
*190 la_data_in[4]
*191 la_data_in[50]
*192 la_data_in[51]
*193 la_data_in[52]
*194 la_data_in[53]
*195 la_data_in[54]
*196 la_data_in[55]
*197 la_data_in[56]
*198 la_data_in[57]
*199 la_data_in[58]
*200 la_data_in[59]
*201 la_data_in[5]
*202 la_data_in[60]
*203 la_data_in[61]
*204 la_data_in[62]
*205 la_data_in[63]
*206 la_data_in[64]
*207 la_data_in[65]
*208 la_data_in[66]
*209 la_data_in[67]
*210 la_data_in[68]
*211 la_data_in[69]
*212 la_data_in[6]
*213 la_data_in[70]
*214 la_data_in[71]
*215 la_data_in[72]
*216 la_data_in[73]
*217 la_data_in[74]
*218 la_data_in[75]
*219 la_data_in[76]
*220 la_data_in[77]
*221 la_data_in[78]
*222 la_data_in[79]
*223 la_data_in[7]
*224 la_data_in[80]
*225 la_data_in[81]
*226 la_data_in[82]
*227 la_data_in[83]
*228 la_data_in[84]
*229 la_data_in[85]
*230 la_data_in[86]
*231 la_data_in[87]
*232 la_data_in[88]
*233 la_data_in[89]
*234 la_data_in[8]
*235 la_data_in[90]
*236 la_data_in[91]
*237 la_data_in[92]
*238 la_data_in[93]
*239 la_data_in[94]
*240 la_data_in[95]
*241 la_data_in[96]
*242 la_data_in[97]
*243 la_data_in[98]
*244 la_data_in[99]
*245 la_data_in[9]
*246 net143
*247 net230
*248 net231
*249 net232
*250 net233
*251 la_data_out[104]
*252 la_data_out[105]
*253 la_data_out[106]
*254 net234
*255 la_data_out[108]
*256 la_data_out[109]
*257 net153
*258 net235
*259 net236
*260 net237
*261 net238
*262 net239
*263 net240
*264 net241
*265 net242
*266 net243
*267 net244
*268 net154
*269 net245
*270 net246
*271 net247
*272 net248
*273 net249
*274 net250
*275 net251
*276 net252
*277 net155
*278 net156
*279 net157
*280 net158
*281 net159
*282 net160
*283 net161
*284 net162
*285 net144
*286 net163
*287 net164
*288 net165
*289 net166
*290 net167
*291 net168
*292 net169
*293 net170
*294 net171
*295 net172
*296 net145
*297 net173
*298 net174
*299 net175
*300 net176
*301 net177
*302 net178
*303 net179
*304 net180
*305 net181
*306 net182
*307 net146
*308 net183
*309 net184
*310 net185
*311 net186
*312 net187
*313 net188
*314 net189
*315 net190
*316 net191
*317 net192
*318 net147
*319 net193
*320 net194
*321 net195
*322 net196
*323 net197
*324 net198
*325 net199
*326 net200
*327 net201
*328 net202
*329 net148
*330 net203
*331 net204
*332 net205
*333 net206
*334 la_data_out[64]
*335 la_data_out[65]
*336 la_data_out[66]
*337 la_data_out[67]
*338 la_data_out[68]
*339 la_data_out[69]
*340 net149
*341 la_data_out[70]
*342 la_data_out[71]
*343 la_data_out[72]
*344 la_data_out[73]
*345 la_data_out[74]
*346 la_data_out[75]
*347 la_data_out[76]
*348 net207
*349 net208
*350 net209
*351 net150
*352 net210
*353 net211
*354 net212
*355 net213
*356 net214
*357 net215
*358 net216
*359 net217
*360 net218
*361 net219
*362 net151
*363 net220
*364 net221
*365 net222
*366 net223
*367 net224
*368 net225
*369 net226
*370 net227
*371 net228
*372 net229
*373 net152
*374 la_oenb[0]
*375 la_oenb[100]
*376 la_oenb[101]
*377 la_oenb[102]
*378 la_oenb[103]
*379 la_oenb[104]
*380 la_oenb[105]
*381 la_oenb[106]
*382 la_oenb[107]
*383 la_oenb[108]
*384 la_oenb[109]
*385 la_oenb[10]
*386 la_oenb[110]
*387 la_oenb[111]
*388 la_oenb[112]
*389 la_oenb[113]
*390 la_oenb[114]
*391 la_oenb[115]
*392 la_oenb[116]
*393 la_oenb[117]
*394 la_oenb[118]
*395 la_oenb[119]
*396 la_oenb[11]
*397 la_oenb[120]
*398 la_oenb[121]
*399 la_oenb[122]
*400 la_oenb[123]
*401 la_oenb[124]
*402 la_oenb[125]
*403 la_oenb[126]
*404 la_oenb[127]
*405 la_oenb[12]
*406 la_oenb[13]
*407 la_oenb[14]
*408 la_oenb[15]
*409 la_oenb[16]
*410 la_oenb[17]
*411 la_oenb[18]
*412 la_oenb[19]
*413 la_oenb[1]
*414 la_oenb[20]
*415 la_oenb[21]
*416 la_oenb[22]
*417 la_oenb[23]
*418 la_oenb[24]
*419 la_oenb[25]
*420 la_oenb[26]
*421 la_oenb[27]
*422 la_oenb[28]
*423 la_oenb[29]
*424 la_oenb[2]
*425 la_oenb[30]
*426 la_oenb[31]
*427 la_oenb[32]
*428 la_oenb[33]
*429 la_oenb[34]
*430 la_oenb[35]
*431 la_oenb[36]
*432 la_oenb[37]
*433 la_oenb[38]
*434 la_oenb[39]
*435 la_oenb[3]
*436 la_oenb[40]
*437 la_oenb[41]
*438 la_oenb[42]
*439 la_oenb[43]
*440 la_oenb[44]
*441 la_oenb[45]
*442 la_oenb[46]
*443 la_oenb[47]
*444 la_oenb[48]
*445 la_oenb[49]
*446 la_oenb[4]
*447 la_oenb[50]
*448 la_oenb[51]
*449 la_oenb[52]
*450 la_oenb[53]
*451 la_oenb[54]
*452 la_oenb[55]
*453 la_oenb[56]
*454 la_oenb[57]
*455 la_oenb[58]
*456 la_oenb[59]
*457 la_oenb[5]
*458 la_oenb[60]
*459 la_oenb[61]
*460 la_oenb[62]
*461 la_oenb[63]
*462 la_oenb[64]
*463 la_oenb[65]
*464 la_oenb[66]
*465 la_oenb[67]
*466 la_oenb[68]
*467 la_oenb[69]
*468 la_oenb[6]
*469 la_oenb[70]
*470 la_oenb[71]
*471 la_oenb[72]
*472 la_oenb[73]
*473 la_oenb[74]
*474 la_oenb[75]
*475 la_oenb[76]
*476 la_oenb[77]
*477 la_oenb[78]
*478 la_oenb[79]
*479 la_oenb[7]
*480 la_oenb[80]
*481 la_oenb[81]
*482 la_oenb[82]
*483 la_oenb[83]
*484 la_oenb[84]
*485 la_oenb[85]
*486 la_oenb[86]
*487 la_oenb[87]
*488 la_oenb[88]
*489 la_oenb[89]
*490 la_oenb[8]
*491 la_oenb[90]
*492 la_oenb[91]
*493 la_oenb[92]
*494 la_oenb[93]
*495 la_oenb[94]
*496 la_oenb[95]
*497 la_oenb[96]
*498 la_oenb[97]
*499 la_oenb[98]
*500 la_oenb[99]
*501 la_oenb[9]
*502 serial_data_rlbp_out
*505 wb_clk_i
*506 wb_rst_i
*507 net253
*508 wbs_adr_i[0]
*509 wbs_adr_i[10]
*510 wbs_adr_i[11]
*511 wbs_adr_i[12]
*512 wbs_adr_i[13]
*513 wbs_adr_i[14]
*514 wbs_adr_i[15]
*515 wbs_adr_i[16]
*516 wbs_adr_i[17]
*517 wbs_adr_i[18]
*518 wbs_adr_i[19]
*519 wbs_adr_i[1]
*520 wbs_adr_i[20]
*521 wbs_adr_i[21]
*522 wbs_adr_i[22]
*523 wbs_adr_i[23]
*524 wbs_adr_i[24]
*525 wbs_adr_i[25]
*526 wbs_adr_i[26]
*527 wbs_adr_i[27]
*528 wbs_adr_i[28]
*529 wbs_adr_i[29]
*530 wbs_adr_i[2]
*531 wbs_adr_i[30]
*532 wbs_adr_i[31]
*533 wbs_adr_i[3]
*534 wbs_adr_i[4]
*535 wbs_adr_i[5]
*536 wbs_adr_i[6]
*537 wbs_adr_i[7]
*538 wbs_adr_i[8]
*539 wbs_adr_i[9]
*540 wbs_cyc_i
*541 wbs_dat_i[0]
*542 wbs_dat_i[10]
*543 wbs_dat_i[11]
*544 wbs_dat_i[12]
*545 wbs_dat_i[13]
*546 wbs_dat_i[14]
*547 wbs_dat_i[15]
*548 wbs_dat_i[16]
*549 wbs_dat_i[17]
*550 wbs_dat_i[18]
*551 wbs_dat_i[19]
*552 wbs_dat_i[1]
*553 wbs_dat_i[20]
*554 wbs_dat_i[21]
*555 wbs_dat_i[22]
*556 wbs_dat_i[23]
*557 wbs_dat_i[24]
*558 wbs_dat_i[25]
*559 wbs_dat_i[26]
*560 wbs_dat_i[27]
*561 wbs_dat_i[28]
*562 wbs_dat_i[29]
*563 wbs_dat_i[2]
*564 wbs_dat_i[30]
*565 wbs_dat_i[31]
*566 wbs_dat_i[3]
*567 wbs_dat_i[4]
*568 wbs_dat_i[5]
*569 wbs_dat_i[6]
*570 wbs_dat_i[7]
*571 wbs_dat_i[8]
*572 wbs_dat_i[9]
*573 wbs_dat_o[0]
*574 wbs_dat_o[10]
*575 wbs_dat_o[11]
*576 wbs_dat_o[12]
*577 net254
*578 net255
*579 net256
*580 net257
*581 net258
*582 net259
*583 net260
*584 wbs_dat_o[1]
*585 net261
*586 net262
*587 net263
*588 net264
*589 net265
*590 net266
*591 net267
*592 net268
*593 net269
*594 net270
*595 wbs_dat_o[2]
*596 net271
*597 net272
*598 wbs_dat_o[3]
*599 wbs_dat_o[4]
*600 wbs_dat_o[5]
*601 wbs_dat_o[6]
*602 wbs_dat_o[7]
*603 wbs_dat_o[8]
*604 wbs_dat_o[9]
*605 wbs_sel_i[0]
*606 wbs_sel_i[1]
*607 wbs_sel_i[2]
*608 wbs_sel_i[3]
*609 wbs_stb_i
*610 wbs_we_i
*611 _000_
*612 _001_
*613 _002_
*614 _003_
*615 _004_
*616 _005_
*617 _006_
*618 _007_
*619 _008_
*620 _009_
*621 _010_
*622 _011_
*623 _012_
*624 _013_
*625 _014_
*626 _015_
*627 _016_
*628 _017_
*629 _018_
*630 _019_
*631 _020_
*632 _021_
*633 _022_
*634 _023_
*635 _024_
*636 _025_
*637 _026_
*638 _027_
*639 _028_
*640 _029_
*641 _030_
*642 _031_
*643 _032_
*644 _033_
*645 _034_
*646 _035_
*647 _036_
*648 _037_
*649 _038_
*650 _039_
*651 _040_
*652 _041_
*653 _042_
*654 _043_
*655 _044_
*656 _045_
*657 _046_
*658 _047_
*659 _048_
*660 _049_
*661 _050_
*662 _051_
*663 _052_
*664 _053_
*665 _054_
*666 _055_
*667 _056_
*668 _057_
*669 _058_
*670 _059_
*671 _060_
*672 _061_
*673 _062_
*674 _063_
*675 _064_
*676 _065_
*677 _066_
*678 _067_
*679 _068_
*680 _069_
*681 _070_
*682 _071_
*683 _072_
*684 _073_
*685 _074_
*686 _075_
*687 _076_
*688 _077_
*689 _078_
*690 _079_
*691 _080_
*692 _081_
*693 _082_
*694 _083_
*695 _084_
*696 _085_
*697 _086_
*698 _087_
*699 _088_
*700 _089_
*701 _090_
*702 _091_
*703 _092_
*704 _093_
*705 _094_
*706 _095_
*707 _096_
*708 _097_
*709 _098_
*710 _099_
*711 _100_
*712 _101_
*713 _102_
*714 _103_
*715 _104_
*716 _105_
*717 _106_
*718 _107_
*719 _108_
*720 _109_
*721 _110_
*722 _111_
*723 _112_
*724 _113_
*725 _114_
*726 _115_
*727 _116_
*728 _117_
*729 _118_
*730 _119_
*731 _120_
*732 _121_
*733 _122_
*734 _123_
*735 _124_
*736 _125_
*737 _126_
*738 _127_
*739 _128_
*740 _129_
*741 _130_
*742 _131_
*743 _132_
*744 _133_
*745 _134_
*746 _135_
*747 _136_
*748 _137_
*749 _138_
*750 _139_
*751 _140_
*752 _141_
*753 _142_
*754 _143_
*755 _144_
*756 _145_
*757 _146_
*758 _147_
*759 _148_
*760 _149_
*761 _150_
*762 _151_
*763 _152_
*764 _153_
*765 _154_
*766 _155_
*767 _156_
*768 _157_
*769 _158_
*770 _159_
*771 _160_
*772 _161_
*773 _162_
*774 _163_
*775 _164_
*776 _165_
*777 _166_
*778 _167_
*779 _168_
*780 _169_
*781 _170_
*782 _171_
*783 _172_
*784 _173_
*785 _174_
*786 _175_
*787 _176_
*788 _177_
*789 _178_
*790 _179_
*791 _180_
*792 _181_
*793 _182_
*794 clknet_0_wb_clk_i
*795 clknet_2_0__leaf_wb_clk_i
*796 clknet_2_1__leaf_wb_clk_i
*797 clknet_2_2__leaf_wb_clk_i
*798 clknet_2_3__leaf_wb_clk_i
*799 control_reg_rlbp_fsm\[0\]
*800 control_reg_rlbp_fsm\[10\]
*801 control_reg_rlbp_fsm\[11\]
*802 control_reg_rlbp_fsm\[12\]
*803 control_reg_rlbp_fsm\[1\]
*804 control_reg_rlbp_fsm\[2\]
*805 control_reg_rlbp_fsm\[3\]
*806 control_reg_rlbp_fsm\[4\]
*807 control_reg_rlbp_fsm\[5\]
*808 control_reg_rlbp_fsm\[6\]
*809 control_reg_rlbp_fsm\[7\]
*810 control_reg_rlbp_fsm\[8\]
*811 control_reg_rlbp_fsm\[9\]
*812 net1
*813 net10
*814 net11
*815 net12
*816 net13
*817 net14
*818 net15
*819 net16
*820 net17
*821 net18
*822 net19
*823 net2
*824 net20
*825 net21
*826 net22
*827 net23
*828 net24
*829 net25
*830 net26
*831 net27
*832 net28
*833 net29
*834 net3
*835 net30
*836 net31
*837 net32
*838 net33
*839 net34
*840 net35
*841 net36
*842 net37
*843 net38
*844 net39
*845 net4
*846 net40
*847 net41
*848 net42
*849 net43
*850 net44
*851 net45
*852 net46
*853 net47
*854 net48
*855 net49
*856 net5
*857 net50
*858 net51
*859 net52
*860 net53
*861 net54
*862 net55
*863 net56
*864 net57
*865 net58
*866 net59
*867 net6
*868 net60
*869 net61
*870 net62
*871 net63
*872 net7
*873 net8
*874 net9
*875 rlbp_inst0\.inst1\.next_state_rlbp\[0\]
*876 rlbp_inst0\.inst1\.next_state_rlbp\[1\]
*877 rlbp_inst0\.inst1\.next_state_rlbp\[2\]
*878 rlbp_inst0\.inst1\.next_state_rlbp\[3\]
*879 rlbp_inst0\.inst1\.next_state_rlbp\[4\]
*880 rlbp_inst0\.inst1\.state_rlbp\[0\]
*881 rlbp_inst0\.inst1\.state_rlbp\[1\]
*882 rlbp_inst0\.inst1\.state_rlbp\[2\]
*883 rlbp_inst0\.inst1\.state_rlbp\[3\]
*884 rlbp_inst0\.inst1\.state_rlbp\[4\]
*885 rlbp_inst0\.inst4\.i\[0\]
*886 rlbp_inst0\.inst4\.i\[1\]
*887 rlbp_inst0\.inst4\.i\[2\]
*888 rlbp_inst0\.inst4\.i\[3\]
*889 ANTENNA__216__A2
*890 ANTENNA__284__A
*891 ANTENNA__286__C1
*892 ANTENNA__288__C1
*893 ANTENNA__290__C1
*894 ANTENNA__292__C1
*895 ANTENNA__316__A
*896 ANTENNA__357__A
*897 ANTENNA__363__A
*898 ANTENNA__374__CLK
*899 ANTENNA__375__CLK
*900 ANTENNA__377__CLK
*901 ANTENNA__383__CLK
*902 ANTENNA__384__CLK
*903 ANTENNA__385__CLK
*904 ANTENNA__386__RESET_B
*905 ANTENNA__387__CLK
*906 ANTENNA__388__CLK
*907 ANTENNA__389__CLK
*908 ANTENNA__390__CLK
*909 ANTENNA__391__CLK
*910 ANTENNA__392__CLK
*911 ANTENNA__393__CLK
*912 ANTENNA__394__CLK
*913 ANTENNA__395__CLK
*914 ANTENNA__401__CLK
*915 ANTENNA__402__CLK
*916 ANTENNA__403__CLK
*917 ANTENNA__404__CLK
*918 ANTENNA__405__CLK
*919 ANTENNA__415__CLK
*920 ANTENNA__416__CLK
*921 ANTENNA__417__CLK
*922 ANTENNA__418__CLK
*923 ANTENNA__419__CLK
*924 ANTENNA__636__A
*925 ANTENNA_clkbuf_0_wb_clk_i_A
*926 ANTENNA_input10_A
*927 ANTENNA_input11_A
*928 ANTENNA_input12_A
*929 ANTENNA_input13_A
*930 ANTENNA_input14_A
*931 ANTENNA_input15_A
*932 ANTENNA_input16_A
*933 ANTENNA_input17_A
*934 ANTENNA_input18_A
*935 ANTENNA_input19_A
*936 ANTENNA_input1_A
*937 ANTENNA_input20_A
*938 ANTENNA_input21_A
*939 ANTENNA_input22_A
*940 ANTENNA_input23_A
*941 ANTENNA_input24_A
*942 ANTENNA_input25_A
*943 ANTENNA_input26_A
*944 ANTENNA_input27_A
*945 ANTENNA_input28_A
*946 ANTENNA_input29_A
*947 ANTENNA_input2_A
*948 ANTENNA_input3_A
*949 ANTENNA_input4_A
*950 ANTENNA_input5_A
*951 ANTENNA_input6_A
*952 ANTENNA_input7_A
*953 ANTENNA_input8_A
*954 ANTENNA_input9_A
*955 ANTENNA_output33_A
*956 ANTENNA_output48_A
*957 FILLER_0_100
*958 FILLER_0_108
*959 FILLER_0_113
*960 FILLER_0_119
*961 FILLER_0_127
*962 FILLER_0_136
*963 FILLER_0_141
*964 FILLER_0_15
*965 FILLER_0_153
*966 FILLER_0_159
*967 FILLER_0_164
*968 FILLER_0_169
*969 FILLER_0_175
*970 FILLER_0_183
*971 FILLER_0_192
*972 FILLER_0_199
*973 FILLER_0_206
*974 FILLER_0_213
*975 FILLER_0_220
*976 FILLER_0_227
*977 FILLER_0_234
*978 FILLER_0_241
*979 FILLER_0_248
*980 FILLER_0_255
*981 FILLER_0_262
*982 FILLER_0_269
*983 FILLER_0_27
*984 FILLER_0_276
*985 FILLER_0_281
*986 FILLER_0_29
*987 FILLER_0_290
*988 FILLER_0_297
*989 FILLER_0_3
*990 FILLER_0_304
*991 FILLER_0_309
*992 FILLER_0_318
*993 FILLER_0_325
*994 FILLER_0_33
*995 FILLER_0_332
*996 FILLER_0_337
*997 FILLER_0_346
*998 FILLER_0_353
*999 FILLER_0_360
*1000 FILLER_0_365
*1001 FILLER_0_369
*1002 FILLER_0_376
*1003 FILLER_0_383
*1004 FILLER_0_39
*1005 FILLER_0_391
*1006 FILLER_0_396
*1007 FILLER_0_403
*1008 FILLER_0_410
*1009 FILLER_0_418
*1010 FILLER_0_421
*1011 FILLER_0_426
*1012 FILLER_0_434
*1013 FILLER_0_442
*1014 FILLER_0_45
*1015 FILLER_0_453
*1016 FILLER_0_461
*1017 FILLER_0_469
*1018 FILLER_0_475
*1019 FILLER_0_481
*1020 FILLER_0_489
*1021 FILLER_0_496
*1022 FILLER_0_505
*1023 FILLER_0_513
*1024 FILLER_0_52
*1025 FILLER_0_520
*1026 FILLER_0_527
*1027 FILLER_0_531
*1028 FILLER_0_536
*1029 FILLER_0_546
*1030 FILLER_0_554
*1031 FILLER_0_565
*1032 FILLER_0_572
*1033 FILLER_0_579
*1034 FILLER_0_587
*1035 FILLER_0_59
*1036 FILLER_0_592
*1037 FILLER_0_599
*1038 FILLER_0_606
*1039 FILLER_0_614
*1040 FILLER_0_620
*1041 FILLER_0_627
*1042 FILLER_0_634
*1043 FILLER_0_642
*1044 FILLER_0_645
*1045 FILLER_0_657
*1046 FILLER_0_66
*1047 FILLER_0_669
*1048 FILLER_0_673
*1049 FILLER_0_685
*1050 FILLER_0_697
*1051 FILLER_0_701
*1052 FILLER_0_713
*1053 FILLER_0_725
*1054 FILLER_0_729
*1055 FILLER_0_73
*1056 FILLER_0_80
*1057 FILLER_0_85
*1058 FILLER_0_92
*1059 FILLER_100_109
*1060 FILLER_100_121
*1061 FILLER_100_133
*1062 FILLER_100_139
*1063 FILLER_100_144
*1064 FILLER_100_15
*1065 FILLER_100_156
*1066 FILLER_100_168
*1067 FILLER_100_180
*1068 FILLER_100_192
*1069 FILLER_100_197
*1070 FILLER_100_209
*1071 FILLER_100_221
*1072 FILLER_100_233
*1073 FILLER_100_245
*1074 FILLER_100_251
*1075 FILLER_100_253
*1076 FILLER_100_265
*1077 FILLER_100_27
*1078 FILLER_100_277
*1079 FILLER_100_289
*1080 FILLER_100_29
*1081 FILLER_100_3
*1082 FILLER_100_301
*1083 FILLER_100_307
*1084 FILLER_100_309
*1085 FILLER_100_321
*1086 FILLER_100_333
*1087 FILLER_100_345
*1088 FILLER_100_357
*1089 FILLER_100_363
*1090 FILLER_100_365
*1091 FILLER_100_377
*1092 FILLER_100_389
*1093 FILLER_100_401
*1094 FILLER_100_41
*1095 FILLER_100_413
*1096 FILLER_100_419
*1097 FILLER_100_421
*1098 FILLER_100_433
*1099 FILLER_100_445
*1100 FILLER_100_457
*1101 FILLER_100_469
*1102 FILLER_100_475
*1103 FILLER_100_477
*1104 FILLER_100_489
*1105 FILLER_100_501
*1106 FILLER_100_513
*1107 FILLER_100_525
*1108 FILLER_100_53
*1109 FILLER_100_531
*1110 FILLER_100_533
*1111 FILLER_100_545
*1112 FILLER_100_557
*1113 FILLER_100_569
*1114 FILLER_100_577
*1115 FILLER_100_582
*1116 FILLER_100_589
*1117 FILLER_100_601
*1118 FILLER_100_613
*1119 FILLER_100_625
*1120 FILLER_100_637
*1121 FILLER_100_643
*1122 FILLER_100_645
*1123 FILLER_100_65
*1124 FILLER_100_657
*1125 FILLER_100_669
*1126 FILLER_100_681
*1127 FILLER_100_693
*1128 FILLER_100_699
*1129 FILLER_100_701
*1130 FILLER_100_708
*1131 FILLER_100_714
*1132 FILLER_100_726
*1133 FILLER_100_732
*1134 FILLER_100_77
*1135 FILLER_100_83
*1136 FILLER_100_85
*1137 FILLER_100_97
*1138 FILLER_101_104
*1139 FILLER_101_108
*1140 FILLER_101_116
*1141 FILLER_101_125
*1142 FILLER_101_132
*1143 FILLER_101_141
*1144 FILLER_101_15
*1145 FILLER_101_150
*1146 FILLER_101_157
*1147 FILLER_101_164
*1148 FILLER_101_169
*1149 FILLER_101_178
*1150 FILLER_101_185
*1151 FILLER_101_192
*1152 FILLER_101_197
*1153 FILLER_101_204
*1154 FILLER_101_213
*1155 FILLER_101_220
*1156 FILLER_101_225
*1157 FILLER_101_229
*1158 FILLER_101_233
*1159 FILLER_101_240
*1160 FILLER_101_244
*1161 FILLER_101_248
*1162 FILLER_101_253
*1163 FILLER_101_258
*1164 FILLER_101_269
*1165 FILLER_101_27
*1166 FILLER_101_276
*1167 FILLER_101_281
*1168 FILLER_101_287
*1169 FILLER_101_29
*1170 FILLER_101_294
*1171 FILLER_101_3
*1172 FILLER_101_300
*1173 FILLER_101_304
*1174 FILLER_101_312
*1175 FILLER_101_323
*1176 FILLER_101_330
*1177 FILLER_101_337
*1178 FILLER_101_341
*1179 FILLER_101_348
*1180 FILLER_101_35
*1181 FILLER_101_356
*1182 FILLER_101_360
*1183 FILLER_101_368
*1184 FILLER_101_377
*1185 FILLER_101_384
*1186 FILLER_101_396
*1187 FILLER_101_403
*1188 FILLER_101_414
*1189 FILLER_101_42
*1190 FILLER_101_424
*1191 FILLER_101_428
*1192 FILLER_101_432
*1193 FILLER_101_439
*1194 FILLER_101_447
*1195 FILLER_101_452
*1196 FILLER_101_459
*1197 FILLER_101_468
*1198 FILLER_101_48
*1199 FILLER_101_480
*1200 FILLER_101_487
*1201 FILLER_101_494
*1202 FILLER_101_502
*1203 FILLER_101_508
*1204 FILLER_101_515
*1205 FILLER_101_52
*1206 FILLER_101_522
*1207 FILLER_101_530
*1208 FILLER_101_536
*1209 FILLER_101_543
*1210 FILLER_101_550
*1211 FILLER_101_558
*1212 FILLER_101_564
*1213 FILLER_101_571
*1214 FILLER_101_578
*1215 FILLER_101_586
*1216 FILLER_101_589
*1217 FILLER_101_594
*1218 FILLER_101_60
*1219 FILLER_101_601
*1220 FILLER_101_612
*1221 FILLER_101_620
*1222 FILLER_101_626
*1223 FILLER_101_630
*1224 FILLER_101_637
*1225 FILLER_101_643
*1226 FILLER_101_648
*1227 FILLER_101_655
*1228 FILLER_101_666
*1229 FILLER_101_676
*1230 FILLER_101_680
*1231 FILLER_101_684
*1232 FILLER_101_691
*1233 FILLER_101_699
*1234 FILLER_101_704
*1235 FILLER_101_71
*1236 FILLER_101_710
*1237 FILLER_101_715
*1238 FILLER_101_727
*1239 FILLER_101_729
*1240 FILLER_101_78
*1241 FILLER_101_85
*1242 FILLER_101_89
*1243 FILLER_101_96
*1244 FILLER_10_105
*1245 FILLER_10_122
*1246 FILLER_10_130
*1247 FILLER_10_136
*1248 FILLER_10_149
*1249 FILLER_10_15
*1250 FILLER_10_153
*1251 FILLER_10_156
*1252 FILLER_10_165
*1253 FILLER_10_171
*1254 FILLER_10_178
*1255 FILLER_10_186
*1256 FILLER_10_192
*1257 FILLER_10_199
*1258 FILLER_10_203
*1259 FILLER_10_220
*1260 FILLER_10_232
*1261 FILLER_10_244
*1262 FILLER_10_253
*1263 FILLER_10_265
*1264 FILLER_10_27
*1265 FILLER_10_277
*1266 FILLER_10_289
*1267 FILLER_10_29
*1268 FILLER_10_3
*1269 FILLER_10_301
*1270 FILLER_10_307
*1271 FILLER_10_329
*1272 FILLER_10_343
*1273 FILLER_10_350
*1274 FILLER_10_354
*1275 FILLER_10_360
*1276 FILLER_10_373
*1277 FILLER_10_377
*1278 FILLER_10_384
*1279 FILLER_10_396
*1280 FILLER_10_404
*1281 FILLER_10_41
*1282 FILLER_10_411
*1283 FILLER_10_419
*1284 FILLER_10_441
*1285 FILLER_10_453
*1286 FILLER_10_461
*1287 FILLER_10_473
*1288 FILLER_10_477
*1289 FILLER_10_483
*1290 FILLER_10_487
*1291 FILLER_10_494
*1292 FILLER_10_500
*1293 FILLER_10_516
*1294 FILLER_10_528
*1295 FILLER_10_53
*1296 FILLER_10_533
*1297 FILLER_10_545
*1298 FILLER_10_557
*1299 FILLER_10_569
*1300 FILLER_10_581
*1301 FILLER_10_587
*1302 FILLER_10_589
*1303 FILLER_10_601
*1304 FILLER_10_613
*1305 FILLER_10_625
*1306 FILLER_10_637
*1307 FILLER_10_643
*1308 FILLER_10_645
*1309 FILLER_10_65
*1310 FILLER_10_657
*1311 FILLER_10_669
*1312 FILLER_10_681
*1313 FILLER_10_693
*1314 FILLER_10_699
*1315 FILLER_10_701
*1316 FILLER_10_713
*1317 FILLER_10_725
*1318 FILLER_10_77
*1319 FILLER_10_83
*1320 FILLER_10_85
*1321 FILLER_10_97
*1322 FILLER_11_105
*1323 FILLER_11_111
*1324 FILLER_11_113
*1325 FILLER_11_125
*1326 FILLER_11_145
*1327 FILLER_11_15
*1328 FILLER_11_151
*1329 FILLER_11_155
*1330 FILLER_11_164
*1331 FILLER_11_174
*1332 FILLER_11_180
*1333 FILLER_11_188
*1334 FILLER_11_196
*1335 FILLER_11_208
*1336 FILLER_11_220
*1337 FILLER_11_225
*1338 FILLER_11_237
*1339 FILLER_11_249
*1340 FILLER_11_261
*1341 FILLER_11_27
*1342 FILLER_11_273
*1343 FILLER_11_279
*1344 FILLER_11_281
*1345 FILLER_11_293
*1346 FILLER_11_3
*1347 FILLER_11_305
*1348 FILLER_11_317
*1349 FILLER_11_331
*1350 FILLER_11_335
*1351 FILLER_11_337
*1352 FILLER_11_341
*1353 FILLER_11_352
*1354 FILLER_11_364
*1355 FILLER_11_375
*1356 FILLER_11_382
*1357 FILLER_11_39
*1358 FILLER_11_390
*1359 FILLER_11_403
*1360 FILLER_11_411
*1361 FILLER_11_421
*1362 FILLER_11_425
*1363 FILLER_11_429
*1364 FILLER_11_436
*1365 FILLER_11_449
*1366 FILLER_11_455
*1367 FILLER_11_461
*1368 FILLER_11_473
*1369 FILLER_11_481
*1370 FILLER_11_491
*1371 FILLER_11_498
*1372 FILLER_11_505
*1373 FILLER_11_51
*1374 FILLER_11_521
*1375 FILLER_11_533
*1376 FILLER_11_545
*1377 FILLER_11_55
*1378 FILLER_11_557
*1379 FILLER_11_561
*1380 FILLER_11_57
*1381 FILLER_11_573
*1382 FILLER_11_585
*1383 FILLER_11_597
*1384 FILLER_11_609
*1385 FILLER_11_615
*1386 FILLER_11_617
*1387 FILLER_11_629
*1388 FILLER_11_641
*1389 FILLER_11_653
*1390 FILLER_11_665
*1391 FILLER_11_671
*1392 FILLER_11_673
*1393 FILLER_11_685
*1394 FILLER_11_69
*1395 FILLER_11_697
*1396 FILLER_11_709
*1397 FILLER_11_721
*1398 FILLER_11_727
*1399 FILLER_11_729
*1400 FILLER_11_81
*1401 FILLER_11_93
*1402 FILLER_12_125
*1403 FILLER_12_134
*1404 FILLER_12_146
*1405 FILLER_12_15
*1406 FILLER_12_158
*1407 FILLER_12_164
*1408 FILLER_12_170
*1409 FILLER_12_190
*1410 FILLER_12_205
*1411 FILLER_12_217
*1412 FILLER_12_229
*1413 FILLER_12_241
*1414 FILLER_12_249
*1415 FILLER_12_253
*1416 FILLER_12_265
*1417 FILLER_12_27
*1418 FILLER_12_277
*1419 FILLER_12_289
*1420 FILLER_12_29
*1421 FILLER_12_3
*1422 FILLER_12_301
*1423 FILLER_12_307
*1424 FILLER_12_309
*1425 FILLER_12_317
*1426 FILLER_12_341
*1427 FILLER_12_359
*1428 FILLER_12_363
*1429 FILLER_12_370
*1430 FILLER_12_377
*1431 FILLER_12_385
*1432 FILLER_12_392
*1433 FILLER_12_400
*1434 FILLER_12_404
*1435 FILLER_12_41
*1436 FILLER_12_412
*1437 FILLER_12_416
*1438 FILLER_12_421
*1439 FILLER_12_443
*1440 FILLER_12_455
*1441 FILLER_12_462
*1442 FILLER_12_469
*1443 FILLER_12_475
*1444 FILLER_12_477
*1445 FILLER_12_483
*1446 FILLER_12_508
*1447 FILLER_12_520
*1448 FILLER_12_53
*1449 FILLER_12_533
*1450 FILLER_12_545
*1451 FILLER_12_557
*1452 FILLER_12_569
*1453 FILLER_12_581
*1454 FILLER_12_587
*1455 FILLER_12_589
*1456 FILLER_12_601
*1457 FILLER_12_613
*1458 FILLER_12_625
*1459 FILLER_12_637
*1460 FILLER_12_643
*1461 FILLER_12_645
*1462 FILLER_12_65
*1463 FILLER_12_657
*1464 FILLER_12_669
*1465 FILLER_12_681
*1466 FILLER_12_693
*1467 FILLER_12_699
*1468 FILLER_12_701
*1469 FILLER_12_713
*1470 FILLER_12_725
*1471 FILLER_12_77
*1472 FILLER_12_83
*1473 FILLER_12_85
*1474 FILLER_12_97
*1475 FILLER_13_105
*1476 FILLER_13_111
*1477 FILLER_13_113
*1478 FILLER_13_125
*1479 FILLER_13_129
*1480 FILLER_13_146
*1481 FILLER_13_15
*1482 FILLER_13_154
*1483 FILLER_13_161
*1484 FILLER_13_167
*1485 FILLER_13_169
*1486 FILLER_13_178
*1487 FILLER_13_190
*1488 FILLER_13_198
*1489 FILLER_13_217
*1490 FILLER_13_223
*1491 FILLER_13_225
*1492 FILLER_13_237
*1493 FILLER_13_249
*1494 FILLER_13_261
*1495 FILLER_13_27
*1496 FILLER_13_273
*1497 FILLER_13_279
*1498 FILLER_13_281
*1499 FILLER_13_293
*1500 FILLER_13_3
*1501 FILLER_13_305
*1502 FILLER_13_317
*1503 FILLER_13_329
*1504 FILLER_13_335
*1505 FILLER_13_337
*1506 FILLER_13_353
*1507 FILLER_13_361
*1508 FILLER_13_374
*1509 FILLER_13_380
*1510 FILLER_13_388
*1511 FILLER_13_39
*1512 FILLER_13_393
*1513 FILLER_13_398
*1514 FILLER_13_422
*1515 FILLER_13_430
*1516 FILLER_13_442
*1517 FILLER_13_452
*1518 FILLER_13_467
*1519 FILLER_13_477
*1520 FILLER_13_492
*1521 FILLER_13_505
*1522 FILLER_13_51
*1523 FILLER_13_517
*1524 FILLER_13_529
*1525 FILLER_13_541
*1526 FILLER_13_55
*1527 FILLER_13_553
*1528 FILLER_13_559
*1529 FILLER_13_561
*1530 FILLER_13_57
*1531 FILLER_13_573
*1532 FILLER_13_585
*1533 FILLER_13_597
*1534 FILLER_13_609
*1535 FILLER_13_615
*1536 FILLER_13_617
*1537 FILLER_13_629
*1538 FILLER_13_641
*1539 FILLER_13_653
*1540 FILLER_13_665
*1541 FILLER_13_671
*1542 FILLER_13_673
*1543 FILLER_13_685
*1544 FILLER_13_69
*1545 FILLER_13_697
*1546 FILLER_13_705
*1547 FILLER_13_717
*1548 FILLER_13_725
*1549 FILLER_13_729
*1550 FILLER_13_81
*1551 FILLER_13_93
*1552 FILLER_14_109
*1553 FILLER_14_121
*1554 FILLER_14_127
*1555 FILLER_14_136
*1556 FILLER_14_141
*1557 FILLER_14_149
*1558 FILLER_14_15
*1559 FILLER_14_167
*1560 FILLER_14_175
*1561 FILLER_14_192
*1562 FILLER_14_197
*1563 FILLER_14_209
*1564 FILLER_14_221
*1565 FILLER_14_233
*1566 FILLER_14_245
*1567 FILLER_14_251
*1568 FILLER_14_253
*1569 FILLER_14_265
*1570 FILLER_14_27
*1571 FILLER_14_277
*1572 FILLER_14_289
*1573 FILLER_14_29
*1574 FILLER_14_3
*1575 FILLER_14_301
*1576 FILLER_14_307
*1577 FILLER_14_309
*1578 FILLER_14_321
*1579 FILLER_14_329
*1580 FILLER_14_334
*1581 FILLER_14_358
*1582 FILLER_14_369
*1583 FILLER_14_385
*1584 FILLER_14_393
*1585 FILLER_14_401
*1586 FILLER_14_41
*1587 FILLER_14_413
*1588 FILLER_14_419
*1589 FILLER_14_424
*1590 FILLER_14_430
*1591 FILLER_14_433
*1592 FILLER_14_457
*1593 FILLER_14_468
*1594 FILLER_14_497
*1595 FILLER_14_509
*1596 FILLER_14_521
*1597 FILLER_14_529
*1598 FILLER_14_53
*1599 FILLER_14_533
*1600 FILLER_14_545
*1601 FILLER_14_557
*1602 FILLER_14_569
*1603 FILLER_14_581
*1604 FILLER_14_587
*1605 FILLER_14_589
*1606 FILLER_14_601
*1607 FILLER_14_613
*1608 FILLER_14_625
*1609 FILLER_14_637
*1610 FILLER_14_643
*1611 FILLER_14_645
*1612 FILLER_14_65
*1613 FILLER_14_657
*1614 FILLER_14_669
*1615 FILLER_14_681
*1616 FILLER_14_693
*1617 FILLER_14_699
*1618 FILLER_14_701
*1619 FILLER_14_709
*1620 FILLER_14_721
*1621 FILLER_14_77
*1622 FILLER_14_83
*1623 FILLER_14_85
*1624 FILLER_14_97
*1625 FILLER_15_105
*1626 FILLER_15_111
*1627 FILLER_15_113
*1628 FILLER_15_125
*1629 FILLER_15_137
*1630 FILLER_15_149
*1631 FILLER_15_15
*1632 FILLER_15_161
*1633 FILLER_15_167
*1634 FILLER_15_169
*1635 FILLER_15_181
*1636 FILLER_15_193
*1637 FILLER_15_205
*1638 FILLER_15_217
*1639 FILLER_15_223
*1640 FILLER_15_225
*1641 FILLER_15_237
*1642 FILLER_15_249
*1643 FILLER_15_261
*1644 FILLER_15_27
*1645 FILLER_15_273
*1646 FILLER_15_279
*1647 FILLER_15_281
*1648 FILLER_15_293
*1649 FILLER_15_3
*1650 FILLER_15_305
*1651 FILLER_15_317
*1652 FILLER_15_329
*1653 FILLER_15_335
*1654 FILLER_15_337
*1655 FILLER_15_345
*1656 FILLER_15_350
*1657 FILLER_15_362
*1658 FILLER_15_374
*1659 FILLER_15_386
*1660 FILLER_15_39
*1661 FILLER_15_393
*1662 FILLER_15_405
*1663 FILLER_15_417
*1664 FILLER_15_429
*1665 FILLER_15_441
*1666 FILLER_15_447
*1667 FILLER_15_449
*1668 FILLER_15_461
*1669 FILLER_15_472
*1670 FILLER_15_484
*1671 FILLER_15_496
*1672 FILLER_15_505
*1673 FILLER_15_51
*1674 FILLER_15_517
*1675 FILLER_15_529
*1676 FILLER_15_541
*1677 FILLER_15_55
*1678 FILLER_15_553
*1679 FILLER_15_559
*1680 FILLER_15_561
*1681 FILLER_15_57
*1682 FILLER_15_573
*1683 FILLER_15_585
*1684 FILLER_15_597
*1685 FILLER_15_609
*1686 FILLER_15_615
*1687 FILLER_15_617
*1688 FILLER_15_629
*1689 FILLER_15_641
*1690 FILLER_15_653
*1691 FILLER_15_665
*1692 FILLER_15_671