*SPEF "ieee 1481-1999"
*DESIGN "rlbp_macro"
*DATE "11:11:11 Fri 11 11, 1111"
*VENDOR "OpenRCX"
*PROGRAM "Parallel Extraction"
*VERSION "1.0"
*DESIGN_FLOW "NAME_SCOPE LOCAL" "PIN_CAP NONE"
*DIVIDER /
*DELIMITER :
*BUS_DELIMITER []
*T_UNIT 1 NS
*C_UNIT 1 PF
*R_UNIT 1 OHM
*L_UNIT 1 HENRY

*NAME_MAP
*1 io_in[0]
*2 io_in[10]
*3 io_in[11]
*4 io_in[12]
*5 io_in[13]
*6 io_in[14]
*7 io_in[15]
*8 io_in[16]
*9 io_in[17]
*10 io_in[18]
*11 io_in[19]
*12 io_in[1]
*13 io_in[20]
*14 io_in[21]
*15 io_in[22]
*16 io_in[23]
*17 io_in[24]
*18 io_in[25]
*19 io_in[26]
*20 io_in[2]
*21 io_in[3]
*22 io_in[4]
*23 io_in[5]
*24 io_in[6]
*25 io_in[7]
*26 io_in[8]
*27 io_in[9]
*28 net48
*29 net58
*30 net59
*31 net60
*32 net61
*33 net62
*34 net63
*35 net64
*36 net65
*37 net66
*38 net67
*39 net49
*40 net68
*41 net69
*42 net70
*43 net71
*44 net72
*45 net73
*46 net74
*47 net50
*48 net51
*49 net52
*50 net53
*51 net54
*52 net55
*53 net56
*54 net57
*55 net75
*56 net85
*57 net86
*58 net87
*59 net88
*60 net89
*61 net90
*62 net91
*63 net92
*64 net93
*65 net94
*66 net76
*67 net95
*68 net96
*69 net97
*70 net98
*71 net99
*72 net100
*73 net101
*74 net77
*75 net78
*76 net79
*77 net80
*78 net81
*79 net82
*80 net83
*81 net84
*82 net102
*83 net103
*84 net104
*85 la_data_in[0]
*86 la_data_in[100]
*87 la_data_in[101]
*88 la_data_in[102]
*89 la_data_in[103]
*90 la_data_in[104]
*91 la_data_in[105]
*92 la_data_in[106]
*93 la_data_in[107]
*94 la_data_in[108]
*95 la_data_in[109]
*96 la_data_in[10]
*97 la_data_in[110]
*98 la_data_in[111]
*99 la_data_in[112]
*100 la_data_in[113]
*101 la_data_in[114]
*102 la_data_in[115]
*103 la_data_in[116]
*104 la_data_in[117]
*105 la_data_in[118]
*106 la_data_in[119]
*107 la_data_in[11]
*108 la_data_in[120]
*109 la_data_in[121]
*110 la_data_in[122]
*111 la_data_in[123]
*112 la_data_in[124]
*113 la_data_in[125]
*114 la_data_in[126]
*115 la_data_in[127]
*116 la_data_in[12]
*117 la_data_in[13]
*118 la_data_in[14]
*119 la_data_in[15]
*120 la_data_in[16]
*121 la_data_in[17]
*122 la_data_in[18]
*123 la_data_in[19]
*124 la_data_in[1]
*125 la_data_in[20]
*126 la_data_in[21]
*127 la_data_in[22]
*128 la_data_in[23]
*129 la_data_in[24]
*130 la_data_in[25]
*131 la_data_in[26]
*132 la_data_in[27]
*133 la_data_in[28]
*134 la_data_in[29]
*135 la_data_in[2]
*136 la_data_in[30]
*137 la_data_in[31]
*138 la_data_in[32]
*139 la_data_in[33]
*140 la_data_in[34]
*141 la_data_in[35]
*142 la_data_in[36]
*143 la_data_in[37]
*144 la_data_in[38]
*145 la_data_in[39]
*146 la_data_in[3]
*147 la_data_in[40]
*148 la_data_in[41]
*149 la_data_in[42]
*150 la_data_in[43]
*151 la_data_in[44]
*152 la_data_in[45]
*153 la_data_in[46]
*154 la_data_in[47]
*155 la_data_in[48]
*156 la_data_in[49]
*157 la_data_in[4]
*158 la_data_in[50]
*159 la_data_in[51]
*160 la_data_in[52]
*161 la_data_in[53]
*162 la_data_in[54]
*163 la_data_in[55]
*164 la_data_in[56]
*165 la_data_in[57]
*166 la_data_in[58]
*167 la_data_in[59]
*168 la_data_in[5]
*169 la_data_in[60]
*170 la_data_in[61]
*171 la_data_in[62]
*172 la_data_in[63]
*173 la_data_in[64]
*174 la_data_in[65]
*175 la_data_in[66]
*176 la_data_in[67]
*177 la_data_in[68]
*178 la_data_in[69]
*179 la_data_in[6]
*180 la_data_in[70]
*181 la_data_in[71]
*182 la_data_in[72]
*183 la_data_in[73]
*184 la_data_in[74]
*185 la_data_in[75]
*186 la_data_in[76]
*187 la_data_in[77]
*188 la_data_in[78]
*189 la_data_in[79]
*190 la_data_in[7]
*191 la_data_in[80]
*192 la_data_in[81]
*193 la_data_in[82]
*194 la_data_in[83]
*195 la_data_in[84]
*196 la_data_in[85]
*197 la_data_in[86]
*198 la_data_in[87]
*199 la_data_in[88]
*200 la_data_in[89]
*201 la_data_in[8]
*202 la_data_in[90]
*203 la_data_in[91]
*204 la_data_in[92]
*205 la_data_in[93]
*206 la_data_in[94]
*207 la_data_in[95]
*208 la_data_in[96]
*209 la_data_in[97]
*210 la_data_in[98]
*211 la_data_in[99]
*212 la_data_in[9]
*213 net105
*214 net192
*215 net193
*216 net194
*217 net195
*218 net196
*219 net197
*220 net198
*221 net199
*222 net200
*223 net201
*224 net115
*225 net202
*226 net203
*227 net204
*228 net205
*229 net206
*230 net207
*231 net208
*232 net209
*233 net210
*234 net211
*235 net116
*236 net212
*237 net213
*238 net214
*239 net215
*240 net216
*241 net217
*242 net218
*243 net219
*244 net117
*245 net118
*246 net119
*247 net120
*248 net121
*249 net122
*250 net123
*251 net124
*252 net106
*253 net125
*254 net126
*255 net127
*256 net128
*257 net129
*258 net130
*259 net131
*260 net132
*261 net133
*262 net134
*263 net107
*264 net135
*265 net136
*266 net137
*267 net138
*268 la_data_out[34]
*269 la_data_out[35]
*270 la_data_out[36]
*271 la_data_out[37]
*272 la_data_out[38]
*273 la_data_out[39]
*274 net108
*275 la_data_out[40]
*276 la_data_out[41]
*277 la_data_out[42]
*278 la_data_out[43]
*279 la_data_out[44]
*280 la_data_out[45]
*281 la_data_out[46]
*282 net139
*283 net140
*284 net141
*285 net109
*286 net142
*287 net143
*288 net144
*289 net145
*290 net146
*291 net147
*292 net148
*293 net149
*294 net150
*295 net151
*296 net110
*297 net152
*298 net153
*299 net154
*300 net155
*301 net156
*302 net157
*303 net158
*304 net159
*305 net160
*306 net161
*307 net111
*308 net162
*309 net163
*310 net164
*311 net165
*312 net166
*313 net167
*314 net168
*315 net169
*316 net170
*317 net171
*318 net112
*319 net172
*320 net173
*321 net174
*322 net175
*323 net176
*324 net177
*325 net178
*326 net179
*327 net180
*328 net181
*329 net113
*330 net182
*331 net183
*332 net184
*333 net185
*334 net186
*335 net187
*336 net188
*337 net189
*338 net190
*339 net191
*340 net114
*341 la_oenb[0]
*342 la_oenb[100]
*343 la_oenb[101]
*344 la_oenb[102]
*345 la_oenb[103]
*346 la_oenb[104]
*347 la_oenb[105]
*348 la_oenb[106]
*349 la_oenb[107]
*350 la_oenb[108]
*351 la_oenb[109]
*352 la_oenb[10]
*353 la_oenb[110]
*354 la_oenb[111]
*355 la_oenb[112]
*356 la_oenb[113]
*357 la_oenb[114]
*358 la_oenb[115]
*359 la_oenb[116]
*360 la_oenb[117]
*361 la_oenb[118]
*362 la_oenb[119]
*363 la_oenb[11]
*364 la_oenb[120]
*365 la_oenb[121]
*366 la_oenb[122]
*367 la_oenb[123]
*368 la_oenb[124]
*369 la_oenb[125]
*370 la_oenb[126]
*371 la_oenb[127]
*372 la_oenb[12]
*373 la_oenb[13]
*374 la_oenb[14]
*375 la_oenb[15]
*376 la_oenb[16]
*377 la_oenb[17]
*378 la_oenb[18]
*379 la_oenb[19]
*380 la_oenb[1]
*381 la_oenb[20]
*382 la_oenb[21]
*383 la_oenb[22]
*384 la_oenb[23]
*385 la_oenb[24]
*386 la_oenb[25]
*387 la_oenb[26]
*388 la_oenb[27]
*389 la_oenb[28]
*390 la_oenb[29]
*391 la_oenb[2]
*392 la_oenb[30]
*393 la_oenb[31]
*394 la_oenb[32]
*395 la_oenb[33]
*396 la_oenb[34]
*397 la_oenb[35]
*398 la_oenb[36]
*399 la_oenb[37]
*400 la_oenb[38]
*401 la_oenb[39]
*402 la_oenb[3]
*403 la_oenb[40]
*404 la_oenb[41]
*405 la_oenb[42]
*406 la_oenb[43]
*407 la_oenb[44]
*408 la_oenb[45]
*409 la_oenb[46]
*410 la_oenb[47]
*411 la_oenb[48]
*412 la_oenb[49]
*413 la_oenb[4]
*414 la_oenb[50]
*415 la_oenb[51]
*416 la_oenb[52]
*417 la_oenb[53]
*418 la_oenb[54]
*419 la_oenb[55]
*420 la_oenb[56]
*421 la_oenb[57]
*422 la_oenb[58]
*423 la_oenb[59]
*424 la_oenb[5]
*425 la_oenb[60]
*426 la_oenb[61]
*427 la_oenb[62]
*428 la_oenb[63]
*429 la_oenb[64]
*430 la_oenb[65]
*431 la_oenb[66]
*432 la_oenb[67]
*433 la_oenb[68]
*434 la_oenb[69]
*435 la_oenb[6]
*436 la_oenb[70]
*437 la_oenb[71]
*438 la_oenb[72]
*439 la_oenb[73]
*440 la_oenb[74]
*441 la_oenb[75]
*442 la_oenb[76]
*443 la_oenb[77]
*444 la_oenb[78]
*445 la_oenb[79]
*446 la_oenb[7]
*447 la_oenb[80]
*448 la_oenb[81]
*449 la_oenb[82]
*450 la_oenb[83]
*451 la_oenb[84]
*452 la_oenb[85]
*453 la_oenb[86]
*454 la_oenb[87]
*455 la_oenb[88]
*456 la_oenb[89]
*457 la_oenb[8]
*458 la_oenb[90]
*459 la_oenb[91]
*460 la_oenb[92]
*461 la_oenb[93]
*462 la_oenb[94]
*463 la_oenb[95]
*464 la_oenb[96]
*465 la_oenb[97]
*466 la_oenb[98]
*467 la_oenb[99]
*468 la_oenb[9]
*469 net220
*472 wb_clk_i
*473 wb_rst_i
*474 net221
*475 wbs_adr_i[0]
*476 wbs_adr_i[10]
*477 wbs_adr_i[11]
*478 wbs_adr_i[12]
*479 wbs_adr_i[13]
*480 wbs_adr_i[14]
*481 wbs_adr_i[15]
*482 wbs_adr_i[16]
*483 wbs_adr_i[17]
*484 wbs_adr_i[18]
*485 wbs_adr_i[19]
*486 wbs_adr_i[1]
*487 wbs_adr_i[20]
*488 wbs_adr_i[21]
*489 wbs_adr_i[22]
*490 wbs_adr_i[23]
*491 wbs_adr_i[24]
*492 wbs_adr_i[25]
*493 wbs_adr_i[26]
*494 wbs_adr_i[27]
*495 wbs_adr_i[28]
*496 wbs_adr_i[29]
*497 wbs_adr_i[2]
*498 wbs_adr_i[30]
*499 wbs_adr_i[31]
*500 wbs_adr_i[3]
*501 wbs_adr_i[4]
*502 wbs_adr_i[5]
*503 wbs_adr_i[6]
*504 wbs_adr_i[7]
*505 wbs_adr_i[8]
*506 wbs_adr_i[9]
*507 wbs_cyc_i
*508 wbs_dat_i[0]
*509 wbs_dat_i[10]
*510 wbs_dat_i[11]
*511 wbs_dat_i[12]
*512 wbs_dat_i[13]
*513 wbs_dat_i[14]
*514 wbs_dat_i[15]
*515 wbs_dat_i[16]
*516 wbs_dat_i[17]
*517 wbs_dat_i[18]
*518 wbs_dat_i[19]
*519 wbs_dat_i[1]
*520 wbs_dat_i[20]
*521 wbs_dat_i[21]
*522 wbs_dat_i[22]
*523 wbs_dat_i[23]
*524 wbs_dat_i[24]
*525 wbs_dat_i[25]
*526 wbs_dat_i[26]
*527 wbs_dat_i[27]
*528 wbs_dat_i[28]
*529 wbs_dat_i[29]
*530 wbs_dat_i[2]
*531 wbs_dat_i[30]
*532 wbs_dat_i[31]
*533 wbs_dat_i[3]
*534 wbs_dat_i[4]
*535 wbs_dat_i[5]
*536 wbs_dat_i[6]
*537 wbs_dat_i[7]
*538 wbs_dat_i[8]
*539 wbs_dat_i[9]
*540 wbs_dat_o[0]
*541 wbs_dat_o[10]
*542 wbs_dat_o[11]
*543 net222
*544 net223
*545 net224
*546 net225
*547 net226
*548 net227
*549 net228
*550 net229
*551 wbs_dat_o[1]
*552 net230
*553 net231
*554 net232
*555 net233
*556 net234
*557 net235
*558 net236
*559 net237
*560 net238
*561 net239
*562 wbs_dat_o[2]
*563 net240
*564 net241
*565 wbs_dat_o[3]
*566 wbs_dat_o[4]
*567 wbs_dat_o[5]
*568 wbs_dat_o[6]
*569 wbs_dat_o[7]
*570 wbs_dat_o[8]
*571 wbs_dat_o[9]
*572 wbs_sel_i[0]
*573 wbs_sel_i[1]
*574 wbs_sel_i[2]
*575 wbs_sel_i[3]
*576 wbs_stb_i
*577 wbs_we_i
*578 _000_
*579 _001_
*580 _002_
*581 _003_
*582 _004_
*583 _005_
*584 _006_
*585 _007_
*586 _008_
*587 _009_
*588 _010_
*589 _011_
*590 _012_
*591 _013_
*592 _014_
*593 _015_
*594 _016_
*595 _017_
*596 _018_
*597 _019_
*598 _020_
*599 _021_
*600 _022_
*601 _023_
*602 _024_
*603 _025_
*604 _026_
*605 _027_
*606 _028_
*607 _029_
*608 _030_
*609 _031_
*610 _032_
*611 _033_
*612 _034_
*613 _035_
*614 _036_
*615 _037_
*616 _038_
*617 _039_
*618 _040_
*619 _041_
*620 _042_
*621 _043_
*622 _044_
*623 _045_
*624 _046_
*625 _047_
*626 _048_
*627 _049_
*628 _050_
*629 _051_
*630 _052_
*631 _053_
*632 _054_
*633 _055_
*634 _056_
*635 _057_
*636 _058_
*637 _059_
*638 _060_
*639 _061_
*640 _062_
*641 _063_
*642 _064_
*643 _065_
*644 _066_
*645 _067_
*646 _068_
*647 _069_
*648 _070_
*649 _071_
*650 _072_
*651 _073_
*652 _074_
*653 _075_
*654 _076_
*655 _077_
*656 _078_
*657 _079_
*658 _080_
*659 _081_
*660 _082_
*661 _083_
*662 _084_
*663 _085_
*664 _086_
*665 _087_
*666 _088_
*667 _089_
*668 _090_
*669 _091_
*670 _092_
*671 _093_
*672 _094_
*673 _095_
*674 _096_
*675 _097_
*676 _098_
*677 _099_
*678 _100_
*679 _101_
*680 _102_
*681 _103_
*682 _104_
*683 _105_
*684 _106_
*685 _107_
*686 _108_
*687 _109_
*688 _110_
*689 _111_
*690 _112_
*691 _113_
*692 _114_
*693 _115_
*694 _116_
*695 _117_
*696 _118_
*697 _119_
*698 _120_
*699 _121_
*700 _122_
*701 _123_
*702 _124_
*703 _125_
*704 _126_
*705 _127_
*706 _128_
*707 _129_
*708 _130_
*709 _131_
*710 _132_
*711 _133_
*712 _134_
*713 _135_
*714 _136_
*715 _137_
*716 _138_
*717 _139_
*718 _140_
*719 _141_
*720 _142_
*721 _143_
*722 _144_
*723 _145_
*724 _146_
*725 _147_
*726 _148_
*727 _149_
*728 _150_
*729 _151_
*730 _152_
*731 _153_
*732 _154_
*733 _155_
*734 _156_
*735 _157_
*736 _158_
*737 _159_
*738 _160_
*739 _161_
*740 _162_
*741 _163_
*742 _164_
*743 _165_
*744 _166_
*745 clknet_0_wb_clk_i
*746 clknet_2_0__leaf_wb_clk_i
*747 clknet_2_1__leaf_wb_clk_i
*748 clknet_2_2__leaf_wb_clk_i
*749 clknet_2_3__leaf_wb_clk_i
*750 net1
*751 net10
*752 net11
*753 net12
*754 net13
*755 net14
*756 net15
*757 net16
*758 net17
*759 net18
*760 net19
*761 net2
*762 net20
*763 net21
*764 net22
*765 net23
*766 net24
*767 net25
*768 net26
*769 net27
*770 net28
*771 net29
*772 net3
*773 net30
*774 net31
*775 net32
*776 net33
*777 net34
*778 net35
*779 net36
*780 net37
*781 net38
*782 net39
*783 net4
*784 net40
*785 net41
*786 net42
*787 net43
*788 net44
*789 net45
*790 net46
*791 net47
*792 net5
*793 net6
*794 net7
*795 net8
*796 net9
*797 rlbp_inst0\.d\[0\]
*798 rlbp_inst0\.d\[1\]
*799 rlbp_inst0\.d\[2\]
*800 rlbp_inst0\.d\[3\]
*801 rlbp_inst0\.data_in
*802 rlbp_inst0\.data_net\[2\]
*803 rlbp_inst0\.data_sel\[0\]
*804 rlbp_inst0\.data_sel\[1\]
*805 rlbp_inst0\.gpio_start
*806 rlbp_inst0\.inst1\.ce_d1
*807 rlbp_inst0\.inst1\.ce_d2
*808 rlbp_inst0\.inst1\.ce_d3
*809 rlbp_inst0\.inst1\.logic_analyzer_start
*810 rlbp_inst0\.inst1\.next_state_rlbp\[0\]
*811 rlbp_inst0\.inst1\.next_state_rlbp\[1\]
*812 rlbp_inst0\.inst1\.next_state_rlbp\[2\]
*813 rlbp_inst0\.inst1\.next_state_rlbp\[3\]
*814 rlbp_inst0\.inst1\.next_state_rlbp\[4\]
*815 rlbp_inst0\.inst1\.state_rlbp\[0\]
*816 rlbp_inst0\.inst1\.state_rlbp\[1\]
*817 rlbp_inst0\.inst1\.state_rlbp\[2\]
*818 rlbp_inst0\.inst1\.state_rlbp\[3\]
*819 rlbp_inst0\.inst1\.state_rlbp\[4\]
*820 ANTENNA__167__B
*821 ANTENNA__167__C_N
*822 ANTENNA__168__A0
*823 ANTENNA__168__A1
*824 ANTENNA__170__A1
*825 ANTENNA__172__B
*826 ANTENNA__179__A1
*827 ANTENNA__181__S
*828 ANTENNA__183__S
*829 ANTENNA__185__C
*830 ANTENNA__186__S
*831 ANTENNA__188__A0
*832 ANTENNA__188__A1
*833 ANTENNA__234__A
*834 ANTENNA__243__A0
*835 ANTENNA__246__A0
*836 ANTENNA__249__A0
*837 ANTENNA__260__A0
*838 ANTENNA__284__A1
*839 ANTENNA__287__A1
*840 ANTENNA__291__A1
*841 ANTENNA__301__A1
*842 ANTENNA__317__A0
*843 ANTENNA__320__A0
*844 ANTENNA_clkbuf_0_wb_clk_i_A
*845 ANTENNA_input10_A
*846 ANTENNA_input11_A
*847 ANTENNA_input12_A
*848 ANTENNA_input13_A
*849 ANTENNA_input14_A
*850 ANTENNA_input15_A
*851 ANTENNA_input16_A
*852 ANTENNA_input17_A
*853 ANTENNA_input18_A
*854 ANTENNA_input19_A
*855 ANTENNA_input1_A
*856 ANTENNA_input20_A
*857 ANTENNA_input21_A
*858 ANTENNA_input2_A
*859 ANTENNA_input3_A
*860 ANTENNA_input4_A
*861 ANTENNA_input5_A
*862 ANTENNA_input6_A
*863 ANTENNA_input7_A
*864 ANTENNA_input8_A
*865 ANTENNA_input9_A
*866 ANTENNA_output30_A
*867 ANTENNA_output31_A
*868 ANTENNA_output32_A
*869 ANTENNA_output36_A
*870 ANTENNA_output37_A
*871 FILLER_0_100
*872 FILLER_0_104
*873 FILLER_0_108
*874 FILLER_0_116
*875 FILLER_0_136
*876 FILLER_0_141
*877 FILLER_0_15
*878 FILLER_0_161
*879 FILLER_0_167
*880 FILLER_0_173
*881 FILLER_0_18
*882 FILLER_0_181
*883 FILLER_0_189
*884 FILLER_0_195
*885 FILLER_0_199
*886 FILLER_0_206
*887 FILLER_0_213
*888 FILLER_0_220
*889 FILLER_0_227
*890 FILLER_0_234
*891 FILLER_0_24
*892 FILLER_0_241
*893 FILLER_0_248
*894 FILLER_0_255
*895 FILLER_0_262
*896 FILLER_0_269
*897 FILLER_0_276
*898 FILLER_0_281
*899 FILLER_0_29
*900 FILLER_0_290
*901 FILLER_0_297
*902 FILLER_0_3
*903 FILLER_0_304
*904 FILLER_0_309
*905 FILLER_0_313
*906 FILLER_0_317
*907 FILLER_0_32
*908 FILLER_0_324
*909 FILLER_0_332
*910 FILLER_0_337
*911 FILLER_0_344
*912 FILLER_0_352
*913 FILLER_0_360
*914 FILLER_0_365
*915 FILLER_0_372
*916 FILLER_0_38
*917 FILLER_0_380
*918 FILLER_0_387
*919 FILLER_0_391
*920 FILLER_0_396
*921 FILLER_0_403
*922 FILLER_0_410
*923 FILLER_0_418
*924 FILLER_0_424
*925 FILLER_0_431
*926 FILLER_0_438
*927 FILLER_0_446
*928 FILLER_0_45
*929 FILLER_0_452
*930 FILLER_0_459
*931 FILLER_0_466
*932 FILLER_0_474
*933 FILLER_0_480
*934 FILLER_0_487
*935 FILLER_0_494
*936 FILLER_0_502
*937 FILLER_0_508
*938 FILLER_0_515
*939 FILLER_0_52
*940 FILLER_0_522
*941 FILLER_0_530
*942 FILLER_0_536
*943 FILLER_0_543
*944 FILLER_0_550
*945 FILLER_0_558
*946 FILLER_0_564
*947 FILLER_0_57
*948 FILLER_0_571
*949 FILLER_0_578
*950 FILLER_0_586
*951 FILLER_0_592
*952 FILLER_0_599
*953 FILLER_0_606
*954 FILLER_0_614
*955 FILLER_0_62
*956 FILLER_0_620
*957 FILLER_0_627
*958 FILLER_0_634
*959 FILLER_0_642
*960 FILLER_0_645
*961 FILLER_0_657
*962 FILLER_0_669
*963 FILLER_0_673
*964 FILLER_0_685
*965 FILLER_0_697
*966 FILLER_0_701
*967 FILLER_0_71
*968 FILLER_0_713
*969 FILLER_0_725
*970 FILLER_0_729
*971 FILLER_0_80
*972 FILLER_0_85
*973 FILLER_0_93
*974 FILLER_100_109
*975 FILLER_100_121
*976 FILLER_100_133
*977 FILLER_100_139
*978 FILLER_100_141
*979 FILLER_100_15
*980 FILLER_100_153
*981 FILLER_100_165
*982 FILLER_100_177
*983 FILLER_100_189
*984 FILLER_100_195
*985 FILLER_100_197
*986 FILLER_100_209
*987 FILLER_100_221
*988 FILLER_100_233
*989 FILLER_100_245
*990 FILLER_100_251
*991 FILLER_100_253
*992 FILLER_100_265
*993 FILLER_100_27
*994 FILLER_100_277
*995 FILLER_100_289
*996 FILLER_100_29
*997 FILLER_100_3
*998 FILLER_100_301
*999 FILLER_100_307
*1000 FILLER_100_309
*1001 FILLER_100_321
*1002 FILLER_100_333
*1003 FILLER_100_345
*1004 FILLER_100_357
*1005 FILLER_100_363
*1006 FILLER_100_365
*1007 FILLER_100_377
*1008 FILLER_100_389
*1009 FILLER_100_401
*1010 FILLER_100_41
*1011 FILLER_100_413
*1012 FILLER_100_419
*1013 FILLER_100_421
*1014 FILLER_100_433
*1015 FILLER_100_445
*1016 FILLER_100_457
*1017 FILLER_100_469
*1018 FILLER_100_475
*1019 FILLER_100_477
*1020 FILLER_100_489
*1021 FILLER_100_501
*1022 FILLER_100_513
*1023 FILLER_100_525
*1024 FILLER_100_53
*1025 FILLER_100_531
*1026 FILLER_100_533
*1027 FILLER_100_545
*1028 FILLER_100_557
*1029 FILLER_100_569
*1030 FILLER_100_581
*1031 FILLER_100_587
*1032 FILLER_100_589
*1033 FILLER_100_601
*1034 FILLER_100_613
*1035 FILLER_100_625
*1036 FILLER_100_637
*1037 FILLER_100_643
*1038 FILLER_100_645
*1039 FILLER_100_65
*1040 FILLER_100_657
*1041 FILLER_100_669
*1042 FILLER_100_681
*1043 FILLER_100_693
*1044 FILLER_100_699
*1045 FILLER_100_701
*1046 FILLER_100_713
*1047 FILLER_100_720
*1048 FILLER_100_727
*1049 FILLER_100_77
*1050 FILLER_100_83
*1051 FILLER_100_85
*1052 FILLER_100_97
*1053 FILLER_101_106
*1054 FILLER_101_11
*1055 FILLER_101_113
*1056 FILLER_101_124
*1057 FILLER_101_133
*1058 FILLER_101_139
*1059 FILLER_101_141
*1060 FILLER_101_147
*1061 FILLER_101_151
*1062 FILLER_101_16
*1063 FILLER_101_160
*1064 FILLER_101_169
*1065 FILLER_101_178
*1066 FILLER_101_187
*1067 FILLER_101_195
*1068 FILLER_101_197
*1069 FILLER_101_201
*1070 FILLER_101_205
*1071 FILLER_101_214
*1072 FILLER_101_222
*1073 FILLER_101_225
*1074 FILLER_101_232
*1075 FILLER_101_241
*1076 FILLER_101_249
*1077 FILLER_101_253
*1078 FILLER_101_259
*1079 FILLER_101_268
*1080 FILLER_101_281
*1081 FILLER_101_286
*1082 FILLER_101_295
*1083 FILLER_101_3
*1084 FILLER_101_307
*1085 FILLER_101_309
*1086 FILLER_101_313
*1087 FILLER_101_32
*1088 FILLER_101_322
*1089 FILLER_101_334
*1090 FILLER_101_340
*1091 FILLER_101_349
*1092 FILLER_101_361
*1093 FILLER_101_368
*1094 FILLER_101_372
*1095 FILLER_101_376
*1096 FILLER_101_388
*1097 FILLER_101_396
*1098 FILLER_101_403
*1099 FILLER_101_415
*1100 FILLER_101_419
*1101 FILLER_101_424
*1102 FILLER_101_43
*1103 FILLER_101_431
*1104 FILLER_101_443
*1105 FILLER_101_447
*1106 FILLER_101_452
*1107 FILLER_101_459
*1108 FILLER_101_471
*1109 FILLER_101_475
*1110 FILLER_101_480
*1111 FILLER_101_487
*1112 FILLER_101_499
*1113 FILLER_101_503
*1114 FILLER_101_508
*1115 FILLER_101_515
*1116 FILLER_101_52
*1117 FILLER_101_527
*1118 FILLER_101_531
*1119 FILLER_101_536
*1120 FILLER_101_543
*1121 FILLER_101_551
*1122 FILLER_101_556
*1123 FILLER_101_561
*1124 FILLER_101_565
*1125 FILLER_101_57
*1126 FILLER_101_577
*1127 FILLER_101_583
*1128 FILLER_101_587
*1129 FILLER_101_592
*1130 FILLER_101_604
*1131 FILLER_101_610
*1132 FILLER_101_620
*1133 FILLER_101_632
*1134 FILLER_101_637
*1135 FILLER_101_643
*1136 FILLER_101_648
*1137 FILLER_101_65
*1138 FILLER_101_660
*1139 FILLER_101_664
*1140 FILLER_101_676
*1141 FILLER_101_691
*1142 FILLER_101_699
*1143 FILLER_101_70
*1144 FILLER_101_704
*1145 FILLER_101_712
*1146 FILLER_101_718
*1147 FILLER_101_726
*1148 FILLER_101_729
*1149 FILLER_101_79
*1150 FILLER_101_83
*1151 FILLER_101_85
*1152 FILLER_101_93
*1153 FILLER_101_97
*1154 FILLER_10_100
*1155 FILLER_10_121
*1156 FILLER_10_133
*1157 FILLER_10_139
*1158 FILLER_10_141
*1159 FILLER_10_149
*1160 FILLER_10_15
*1161 FILLER_10_157
*1162 FILLER_10_178
*1163 FILLER_10_190
*1164 FILLER_10_197
*1165 FILLER_10_212
*1166 FILLER_10_219
*1167 FILLER_10_225
*1168 FILLER_10_229
*1169 FILLER_10_235
*1170 FILLER_10_248
*1171 FILLER_10_253
*1172 FILLER_10_258
*1173 FILLER_10_27
*1174 FILLER_10_270
*1175 FILLER_10_278
*1176 FILLER_10_291
*1177 FILLER_10_298
*1178 FILLER_10_3
*1179 FILLER_10_306
*1180 FILLER_10_309
*1181 FILLER_10_32
*1182 FILLER_10_321
*1183 FILLER_10_333
*1184 FILLER_10_345
*1185 FILLER_10_357
*1186 FILLER_10_363
*1187 FILLER_10_365
*1188 FILLER_10_377
*1189 FILLER_10_389
*1190 FILLER_10_401
*1191 FILLER_10_413
*1192 FILLER_10_419
*1193 FILLER_10_421
*1194 FILLER_10_433
*1195 FILLER_10_445
*1196 FILLER_10_457
*1197 FILLER_10_46
*1198 FILLER_10_469
*1199 FILLER_10_475
*1200 FILLER_10_477
*1201 FILLER_10_489
*1202 FILLER_10_501
*1203 FILLER_10_513
*1204 FILLER_10_525
*1205 FILLER_10_531
*1206 FILLER_10_533
*1207 FILLER_10_54
*1208 FILLER_10_545
*1209 FILLER_10_557
*1210 FILLER_10_569
*1211 FILLER_10_581
*1212 FILLER_10_587
*1213 FILLER_10_589
*1214 FILLER_10_601
*1215 FILLER_10_613
*1216 FILLER_10_625
*1217 FILLER_10_637
*1218 FILLER_10_643
*1219 FILLER_10_645
*1220 FILLER_10_657
*1221 FILLER_10_669
*1222 FILLER_10_681
*1223 FILLER_10_693
*1224 FILLER_10_699
*1225 FILLER_10_701
*1226 FILLER_10_713
*1227 FILLER_10_72
*1228 FILLER_10_725
*1229 FILLER_10_79
*1230 FILLER_10_83
*1231 FILLER_10_94
*1232 FILLER_11_103
*1233 FILLER_11_111
*1234 FILLER_11_113
*1235 FILLER_11_125
*1236 FILLER_11_142
*1237 FILLER_11_15
*1238 FILLER_11_154
*1239 FILLER_11_166
*1240 FILLER_11_169
*1241 FILLER_11_181
*1242 FILLER_11_193
*1243 FILLER_11_205
*1244 FILLER_11_216
*1245 FILLER_11_228
*1246 FILLER_11_239
*1247 FILLER_11_251
*1248 FILLER_11_268
*1249 FILLER_11_27
*1250 FILLER_11_275
*1251 FILLER_11_279
*1252 FILLER_11_284
*1253 FILLER_11_296
*1254 FILLER_11_3
*1255 FILLER_11_308
*1256 FILLER_11_320
*1257 FILLER_11_33
*1258 FILLER_11_332
*1259 FILLER_11_337
*1260 FILLER_11_349
*1261 FILLER_11_361
*1262 FILLER_11_373
*1263 FILLER_11_385
*1264 FILLER_11_391
*1265 FILLER_11_393
*1266 FILLER_11_405
*1267 FILLER_11_41
*1268 FILLER_11_417
*1269 FILLER_11_429
*1270 FILLER_11_441
*1271 FILLER_11_447
*1272 FILLER_11_449
*1273 FILLER_11_461
*1274 FILLER_11_473
*1275 FILLER_11_485
*1276 FILLER_11_497
*1277 FILLER_11_503
*1278 FILLER_11_505
*1279 FILLER_11_517
*1280 FILLER_11_52
*1281 FILLER_11_529
*1282 FILLER_11_541
*1283 FILLER_11_553
*1284 FILLER_11_559
*1285 FILLER_11_561
*1286 FILLER_11_573
*1287 FILLER_11_585
*1288 FILLER_11_597
*1289 FILLER_11_609
*1290 FILLER_11_615
*1291 FILLER_11_617
*1292 FILLER_11_62
*1293 FILLER_11_629
*1294 FILLER_11_641
*1295 FILLER_11_653
*1296 FILLER_11_665
*1297 FILLER_11_671
*1298 FILLER_11_673
*1299 FILLER_11_685
*1300 FILLER_11_697
*1301 FILLER_11_709
*1302 FILLER_11_721
*1303 FILLER_11_727
*1304 FILLER_11_729
*1305 FILLER_11_74
*1306 FILLER_11_80
*1307 FILLER_11_84
*1308 FILLER_11_90
*1309 FILLER_11_96
*1310 FILLER_12_102
*1311 FILLER_12_121
*1312 FILLER_12_133
*1313 FILLER_12_139
*1314 FILLER_12_141
*1315 FILLER_12_15
*1316 FILLER_12_165
*1317 FILLER_12_189
*1318 FILLER_12_195
*1319 FILLER_12_217
*1320 FILLER_12_221
*1321 FILLER_12_229
*1322 FILLER_12_239
*1323 FILLER_12_251
*1324 FILLER_12_253
*1325 FILLER_12_261
*1326 FILLER_12_27
*1327 FILLER_12_273
*1328 FILLER_12_277
*1329 FILLER_12_285
*1330 FILLER_12_29
*1331 FILLER_12_291
*1332 FILLER_12_3
*1333 FILLER_12_304
*1334 FILLER_12_309
*1335 FILLER_12_321
*1336 FILLER_12_333
*1337 FILLER_12_345
*1338 FILLER_12_357
*1339 FILLER_12_36
*1340 FILLER_12_363
*1341 FILLER_12_365
*1342 FILLER_12_377
*1343 FILLER_12_389
*1344 FILLER_12_401
*1345 FILLER_12_413
*1346 FILLER_12_419
*1347 FILLER_12_421
*1348 FILLER_12_433
*1349 FILLER_12_445
*1350 FILLER_12_457
*1351 FILLER_12_469
*1352 FILLER_12_475
*1353 FILLER_12_477
*1354 FILLER_12_48
*1355 FILLER_12_489
*1356 FILLER_12_501
*1357 FILLER_12_513
*1358 FILLER_12_525
*1359 FILLER_12_531
*1360 FILLER_12_533
*1361 FILLER_12_545
*1362 FILLER_12_557
*1363 FILLER_12_569
*1364 FILLER_12_581
*1365 FILLER_12_587
*1366 FILLER_12_589
*1367 FILLER_12_601
*1368 FILLER_12_613
*1369 FILLER_12_625
*1370 FILLER_12_637
*1371 FILLER_12_643
*1372 FILLER_12_645
*1373 FILLER_12_65
*1374 FILLER_12_657
*1375 FILLER_12_669
*1376 FILLER_12_681
*1377 FILLER_12_693
*1378 FILLER_12_699
*1379 FILLER_12_701
*1380 FILLER_12_713
*1381 FILLER_12_72
*1382 FILLER_12_725
*1383 FILLER_12_85
*1384 FILLER_12_90
*1385 FILLER_13_103
*1386 FILLER_13_111
*1387 FILLER_13_113
*1388 FILLER_13_125
*1389 FILLER_13_137
*1390 FILLER_13_15
*1391 FILLER_13_156
*1392 FILLER_13_169
*1393 FILLER_13_181
*1394 FILLER_13_202
*1395 FILLER_13_210
*1396 FILLER_13_220
*1397 FILLER_13_235
*1398 FILLER_13_248
*1399 FILLER_13_255
*1400 FILLER_13_264
*1401 FILLER_13_27
*1402 FILLER_13_276
*1403 FILLER_13_281
*1404 FILLER_13_289
*1405 FILLER_13_295
*1406 FILLER_13_3
*1407 FILLER_13_307
*1408 FILLER_13_319
*1409 FILLER_13_331
*1410 FILLER_13_335
*1411 FILLER_13_337
*1412 FILLER_13_34
*1413 FILLER_13_349
*1414 FILLER_13_361
*1415 FILLER_13_373
*1416 FILLER_13_385
*1417 FILLER_13_391
*1418 FILLER_13_393
*1419 FILLER_13_405
*1420 FILLER_13_417
*1421 FILLER_13_429
*1422 FILLER_13_441
*1423 FILLER_13_447
*1424 FILLER_13_449
*1425 FILLER_13_46
*1426 FILLER_13_461
*1427 FILLER_13_473
*1428 FILLER_13_485
*1429 FILLER_13_497
*1430 FILLER_13_503
*1431 FILLER_13_505
*1432 FILLER_13_517
*1433 FILLER_13_529
*1434 FILLER_13_54
*1435 FILLER_13_541
*1436 FILLER_13_553
*1437 FILLER_13_559
*1438 FILLER_13_561
*1439 FILLER_13_573
*1440 FILLER_13_585
*1441 FILLER_13_597
*1442 FILLER_13_609
*1443 FILLER_13_615
*1444 FILLER_13_617
*1445 FILLER_13_62
*1446 FILLER_13_629
*1447 FILLER_13_641
*1448 FILLER_13_653
*1449 FILLER_13_665
*1450 FILLER_13_671
*1451 FILLER_13_673
*1452 FILLER_13_685
*1453 FILLER_13_69
*1454 FILLER_13_697
*1455 FILLER_13_709
*1456 FILLER_13_721
*1457 FILLER_13_727
*1458 FILLER_13_729
*1459 FILLER_13_78
*1460 FILLER_13_91
*1461 FILLER_14_102
*1462 FILLER_14_121
*1463 FILLER_14_133
*1464 FILLER_14_139
*1465 FILLER_14_141
*1466 FILLER_14_15
*1467 FILLER_14_153
*1468 FILLER_14_175
*1469 FILLER_14_187
*1470 FILLER_14_195
*1471 FILLER_14_197
*1472 FILLER_14_209
*1473 FILLER_14_231
*1474 FILLER_14_235
*1475 FILLER_14_240
*1476 FILLER_14_248
*1477 FILLER_14_263
*1478 FILLER_14_267
*1479 FILLER_14_27
*1480 FILLER_14_277
*1481 FILLER_14_289
*1482 FILLER_14_29
*1483 FILLER_14_3
*1484 FILLER_14_301
*1485 FILLER_14_307
*1486 FILLER_14_309
*1487 FILLER_14_321
*1488 FILLER_14_333
*1489 FILLER_14_345
*1490 FILLER_14_357
*1491 FILLER_14_363
*1492 FILLER_14_365
*1493 FILLER_14_377
*1494 FILLER_14_389
*1495 FILLER_14_401
*1496 FILLER_14_41
*1497 FILLER_14_413
*1498 FILLER_14_419
*1499 FILLER_14_421
*1500 FILLER_14_433
*1501 FILLER_14_445
*1502 FILLER_14_457
*1503 FILLER_14_469
*1504 FILLER_14_475
*1505 FILLER_14_477
*1506 FILLER_14_489
*1507 FILLER_14_49
*1508 FILLER_14_501
*1509 FILLER_14_513
*1510 FILLER_14_525
*1511 FILLER_14_531
*1512 FILLER_14_533
*1513 FILLER_14_545
*1514 FILLER_14_557
*1515 FILLER_14_569
*1516 FILLER_14_57
*1517 FILLER_14_581
*1518 FILLER_14_587
*1519 FILLER_14_589
*1520 FILLER_14_601
*1521 FILLER_14_613
*1522 FILLER_14_625
*1523 FILLER_14_637
*1524 FILLER_14_643
*1525 FILLER_14_645
*1526 FILLER_14_657
*1527 FILLER_14_669
*1528 FILLER_14_681
*1529 FILLER_14_693
*1530 FILLER_14_699
*1531 FILLER_14_70
*1532 FILLER_14_701
*1533 FILLER_14_713
*1534 FILLER_14_725
*1535 FILLER_14_76
*1536 FILLER_14_94
*1537 FILLER_15_105
*1538 FILLER_15_111
*1539 FILLER_15_113
*1540 FILLER_15_133
*1541 FILLER_15_15
*1542 FILLER_15_153
*1543 FILLER_15_165
*1544 FILLER_15_169
*1545 FILLER_15_181
*1546 FILLER_15_204
*1547 FILLER_15_220
*1548 FILLER_15_228
*1549 FILLER_15_240
*1550 FILLER_15_251
*1551 FILLER_15_259
*1552 FILLER_15_267
*1553 FILLER_15_27
*1554 FILLER_15_279
*1555 FILLER_15_288
*1556 FILLER_15_3
*1557 FILLER_15_300
*1558 FILLER_15_312
*1559 FILLER_15_324
*1560 FILLER_15_337
*1561 FILLER_15_349
*1562 FILLER_15_361
*1563 FILLER_15_373
*1564 FILLER_15_385
*1565 FILLER_15_39
*1566 FILLER_15_391
*1567 FILLER_15_393
*1568 FILLER_15_405
*1569 FILLER_15_417
*1570 FILLER_15_429
*1571 FILLER_15_441
*1572 FILLER_15_447
*1573 FILLER_15_449
*1574 FILLER_15_461
*1575 FILLER_15_473
*1576 FILLER_15_485
*1577 FILLER_15_497
*1578 FILLER_15_503
*1579 FILLER_15_505
*1580 FILLER_15_51
*1581 FILLER_15_517
*1582 FILLER_15_529
*1583 FILLER_15_541
*1584 FILLER_15_55
*1585 FILLER_15_553
*1586 FILLER_15_559
*1587 FILLER_15_561
*1588 FILLER_15_57
*1589 FILLER_15_573
*1590 FILLER_15_585
*1591 FILLER_15_597
*1592 FILLER_15_609
*1593 FILLER_15_615
*1594 FILLER_15_617
*1595 FILLER_15_629
*1596 FILLER_15_64
*1597 FILLER_15_641
*1598 FILLER_15_653
*1599 FILLER_15_665
*1600 FILLER_15_671
*1601 FILLER_15_673
*1602 FILLER_15_685
*1603 FILLER_15_697
*1604 FILLER_15_709
*1605 FILLER_15_721
*1606 FILLER_15_727
*1607 FILLER_15_729
*1608 FILLER_15_76
*1609 FILLER_15_88
*1610 FILLER_15_93
*1611 FILLER_16_118
*1612 FILLER_16_130
*1613 FILLER_16_138
*1614 FILLER_16_141
*1615 FILLER_16_15
*1616 FILLER_16_153
*1617 FILLER_16_165
*1618 FILLER_16_177
*1619 FILLER_16_189
*1620 FILLER_16_195
*1621 FILLER_16_197
*1622 FILLER_16_209
*1623 FILLER_16_221
*1624 FILLER_16_232
*1625 FILLER_16_244
*1626 FILLER_16_253
*1627 FILLER_16_265
*1628 FILLER_16_27
*1629 FILLER_16_276
*1630 FILLER_16_288
*1631 FILLER_16_29
*1632 FILLER_16_3
*1633 FILLER_16_300
*1634 FILLER_16_309
*1635 FILLER_16_321
*1636 FILLER_16_333
*1637 FILLER_16_345
*1638 FILLER_16_357
*1639 FILLER_16_363
*1640 FILLER_16_365
*1641 FILLER_16_377
*1642 FILLER_16_389
*1643 FILLER_16_401
*1644 FILLER_16_41
*1645 FILLER_16_413
*1646 FILLER_16_419
*1647 FILLER_16_421
*1648 FILLER_16_433
*1649 FILLER_16_445
*1650 FILLER_16_457
*1651 FILLER_16_469
*1652 FILLER_16_475
*1653 FILLER_16_477
*1654 FILLER_16_489
*1655 FILLER_16_501
*1656 FILLER_16_513
*1657 FILLER_16_525
*1658 FILLER_16_53
*1659 FILLER_16_531
*1660 FILLER_16_533
*1661 FILLER_16_545
*1662 FILLER_16_557
*1663 FILLER_16_569
*1664 FILLER_16_581
*1665 FILLER_16_587
*1666 FILLER_16_589
*1667 FILLER_16_601
*1668 FILLER_16_613
*1669 FILLER_16_625
*1670 FILLER_16_637
*1671 FILLER_16_643
*1672 FILLER_16_645
*1673 FILLER_16_65
*1674 FILLER_16_657
*1675 FILLER_16_669
*1676 FILLER_16_681
*1677 FILLER_16_693
*1678 FILLER_16_699
*1679 FILLER_16_701
*1680 FILLER_16_713
*1681 FILLER_16_725
*1682 FILLER_16_77
*1683 FILLER_16_83