*SPEF "ieee 1481-1999"
*DESIGN "rlbp_macro"
*DATE "11:11:11 Fri 11 11, 1111"
*VENDOR "OpenRCX"
*PROGRAM "Parallel Extraction"
*VERSION "1.0"
*DESIGN_FLOW "NAME_SCOPE LOCAL" "PIN_CAP NONE"
*DIVIDER /
*DELIMITER :
*BUS_DELIMITER []
*T_UNIT 1 NS
*C_UNIT 1 PF
*R_UNIT 1 OHM
*L_UNIT 1 HENRY

*NAME_MAP
*1 io_in[0]
*2 io_in[10]
*3 io_in[11]
*4 io_in[12]
*5 io_in[13]
*6 io_in[14]
*7 io_in[15]
*8 io_in[16]
*9 io_in[17]
*10 io_in[18]
*11 io_in[19]
*12 io_in[1]
*13 io_in[20]
*14 io_in[21]
*15 io_in[22]
*16 io_in[23]
*17 io_in[24]
*18 io_in[25]
*19 io_in[26]
*20 io_in[27]
*21 io_in[28]
*22 io_in[29]
*23 io_in[2]
*24 io_in[30]
*25 io_in[31]
*26 io_in[32]
*27 io_in[33]
*28 io_in[34]
*29 io_in[35]
*30 io_in[36]
*31 io_in[37]
*32 io_in[3]
*33 io_in[4]
*34 io_in[5]
*35 io_in[6]
*36 io_in[7]
*37 io_in[8]
*38 io_in[9]
*39 net49
*40 net59
*41 net60
*42 net61
*43 net62
*44 net63
*45 net64
*46 net65
*47 net66
*48 net67
*49 net68
*50 net50
*51 net69
*52 net70
*53 net71
*54 net72
*55 net73
*56 net74
*57 net75
*58 net76
*59 net77
*60 net78
*61 net51
*62 net79
*63 net80
*64 net81
*65 net82
*66 net83
*67 net84
*68 net85
*69 net86
*70 net52
*71 net53
*72 net54
*73 net55
*74 net56
*75 net57
*76 net58
*77 net87
*78 net97
*79 net98
*80 net99
*81 net100
*82 net101
*83 net102
*84 net103
*85 net104
*86 net105
*87 net106
*88 net88
*89 net107
*90 net108
*91 net109
*92 net110
*93 net111
*94 net112
*95 net113
*96 net114
*97 net115
*98 net116
*99 net89
*100 net117
*101 net118
*102 net119
*103 net120
*104 net121
*105 net122
*106 net123
*107 net124
*108 net90
*109 net91
*110 net92
*111 net93
*112 net94
*113 net95
*114 net96
*115 net125
*116 net126
*117 net127
*118 la_data_in[0]
*119 la_data_in[100]
*120 la_data_in[101]
*121 la_data_in[102]
*122 la_data_in[103]
*123 la_data_in[104]
*124 la_data_in[105]
*125 la_data_in[106]
*126 la_data_in[107]
*127 la_data_in[108]
*128 la_data_in[109]
*129 la_data_in[10]
*130 la_data_in[110]
*131 la_data_in[111]
*132 la_data_in[112]
*133 la_data_in[113]
*134 la_data_in[114]
*135 la_data_in[115]
*136 la_data_in[116]
*137 la_data_in[117]
*138 la_data_in[118]
*139 la_data_in[119]
*140 la_data_in[11]
*141 la_data_in[120]
*142 la_data_in[121]
*143 la_data_in[122]
*144 la_data_in[123]
*145 la_data_in[124]
*146 la_data_in[125]
*147 la_data_in[126]
*148 la_data_in[127]
*149 la_data_in[12]
*150 la_data_in[13]
*151 la_data_in[14]
*152 la_data_in[15]
*153 la_data_in[16]
*154 la_data_in[17]
*155 la_data_in[18]
*156 la_data_in[19]
*157 la_data_in[1]
*158 la_data_in[20]
*159 la_data_in[21]
*160 la_data_in[22]
*161 la_data_in[23]
*162 la_data_in[24]
*163 la_data_in[25]
*164 la_data_in[26]
*165 la_data_in[27]
*166 la_data_in[28]
*167 la_data_in[29]
*168 la_data_in[2]
*169 la_data_in[30]
*170 la_data_in[31]
*171 la_data_in[32]
*172 la_data_in[33]
*173 la_data_in[34]
*174 la_data_in[35]
*175 la_data_in[36]
*176 la_data_in[37]
*177 la_data_in[38]
*178 la_data_in[39]
*179 la_data_in[3]
*180 la_data_in[40]
*181 la_data_in[41]
*182 la_data_in[42]
*183 la_data_in[43]
*184 la_data_in[44]
*185 la_data_in[45]
*186 la_data_in[46]
*187 la_data_in[47]
*188 la_data_in[48]
*189 la_data_in[49]
*190 la_data_in[4]
*191 la_data_in[50]
*192 la_data_in[51]
*193 la_data_in[52]
*194 la_data_in[53]
*195 la_data_in[54]
*196 la_data_in[55]
*197 la_data_in[56]
*198 la_data_in[57]
*199 la_data_in[58]
*200 la_data_in[59]
*201 la_data_in[5]
*202 la_data_in[60]
*203 la_data_in[61]
*204 la_data_in[62]
*205 la_data_in[63]
*206 la_data_in[64]
*207 la_data_in[65]
*208 la_data_in[66]
*209 la_data_in[67]
*210 la_data_in[68]
*211 la_data_in[69]
*212 la_data_in[6]
*213 la_data_in[70]
*214 la_data_in[71]
*215 la_data_in[72]
*216 la_data_in[73]
*217 la_data_in[74]
*218 la_data_in[75]
*219 la_data_in[76]
*220 la_data_in[77]
*221 la_data_in[78]
*222 la_data_in[79]
*223 la_data_in[7]
*224 la_data_in[80]
*225 la_data_in[81]
*226 la_data_in[82]
*227 la_data_in[83]
*228 la_data_in[84]
*229 la_data_in[85]
*230 la_data_in[86]
*231 la_data_in[87]
*232 la_data_in[88]
*233 la_data_in[89]
*234 la_data_in[8]
*235 la_data_in[90]
*236 la_data_in[91]
*237 la_data_in[92]
*238 la_data_in[93]
*239 la_data_in[94]
*240 la_data_in[95]
*241 la_data_in[96]
*242 la_data_in[97]
*243 la_data_in[98]
*244 la_data_in[99]
*245 la_data_in[9]
*246 net128
*247 net228
*248 net229
*249 net230
*250 net231
*251 net232
*252 net233
*253 net234
*254 net235
*255 net236
*256 net237
*257 net138
*258 net238
*259 net239
*260 net240
*261 net241
*262 net242
*263 net243
*264 net244
*265 net245
*266 net246
*267 net247
*268 net139
*269 net248
*270 net249
*271 net250
*272 net251
*273 net252
*274 net253
*275 net254
*276 net255
*277 net140
*278 net141
*279 net142
*280 net143
*281 net144
*282 net145
*283 net146
*284 net147
*285 net129
*286 net148
*287 net149
*288 net150
*289 net151
*290 net152
*291 net153
*292 net154
*293 net155
*294 net156
*295 net157
*296 net130
*297 net158
*298 net159
*299 net160
*300 net161
*301 net162
*302 net163
*303 net164
*304 net165
*305 net166
*306 net167
*307 net131
*308 net168
*309 net169
*310 net170
*311 net171
*312 net172
*313 net173
*314 net174
*315 net175
*316 net176
*317 net177
*318 net132
*319 net178
*320 net179
*321 net180
*322 net181
*323 net182
*324 net183
*325 net184
*326 net185
*327 net186
*328 net187
*329 net133
*330 net188
*331 net189
*332 net190
*333 net191
*334 net192
*335 net193
*336 net194
*337 net195
*338 net196
*339 net197
*340 net134
*341 net198
*342 net199
*343 net200
*344 net201
*345 net202
*346 net203
*347 net204
*348 net205
*349 net206
*350 net207
*351 net135
*352 net208
*353 net209
*354 net210
*355 net211
*356 net212
*357 net213
*358 net214
*359 net215
*360 net216
*361 net217
*362 net136
*363 net218
*364 net219
*365 net220
*366 net221
*367 net222
*368 net223
*369 net224
*370 net225
*371 net226
*372 net227
*373 net137
*374 la_oenb[0]
*375 la_oenb[100]
*376 la_oenb[101]
*377 la_oenb[102]
*378 la_oenb[103]
*379 la_oenb[104]
*380 la_oenb[105]
*381 la_oenb[106]
*382 la_oenb[107]
*383 la_oenb[108]
*384 la_oenb[109]
*385 la_oenb[10]
*386 la_oenb[110]
*387 la_oenb[111]
*388 la_oenb[112]
*389 la_oenb[113]
*390 la_oenb[114]
*391 la_oenb[115]
*392 la_oenb[116]
*393 la_oenb[117]
*394 la_oenb[118]
*395 la_oenb[119]
*396 la_oenb[11]
*397 la_oenb[120]
*398 la_oenb[121]
*399 la_oenb[122]
*400 la_oenb[123]
*401 la_oenb[124]
*402 la_oenb[125]
*403 la_oenb[126]
*404 la_oenb[127]
*405 la_oenb[12]
*406 la_oenb[13]
*407 la_oenb[14]
*408 la_oenb[15]
*409 la_oenb[16]
*410 la_oenb[17]
*411 la_oenb[18]
*412 la_oenb[19]
*413 la_oenb[1]
*414 la_oenb[20]
*415 la_oenb[21]
*416 la_oenb[22]
*417 la_oenb[23]
*418 la_oenb[24]
*419 la_oenb[25]
*420 la_oenb[26]
*421 la_oenb[27]
*422 la_oenb[28]
*423 la_oenb[29]
*424 la_oenb[2]
*425 la_oenb[30]
*426 la_oenb[31]
*427 la_oenb[32]
*428 la_oenb[33]
*429 la_oenb[34]
*430 la_oenb[35]
*431 la_oenb[36]
*432 la_oenb[37]
*433 la_oenb[38]
*434 la_oenb[39]
*435 la_oenb[3]
*436 la_oenb[40]
*437 la_oenb[41]
*438 la_oenb[42]
*439 la_oenb[43]
*440 la_oenb[44]
*441 la_oenb[45]
*442 la_oenb[46]
*443 la_oenb[47]
*444 la_oenb[48]
*445 la_oenb[49]
*446 la_oenb[4]
*447 la_oenb[50]
*448 la_oenb[51]
*449 la_oenb[52]
*450 la_oenb[53]
*451 la_oenb[54]
*452 la_oenb[55]
*453 la_oenb[56]
*454 la_oenb[57]
*455 la_oenb[58]
*456 la_oenb[59]
*457 la_oenb[5]
*458 la_oenb[60]
*459 la_oenb[61]
*460 la_oenb[62]
*461 la_oenb[63]
*462 la_oenb[64]
*463 la_oenb[65]
*464 la_oenb[66]
*465 la_oenb[67]
*466 la_oenb[68]
*467 la_oenb[69]
*468 la_oenb[6]
*469 la_oenb[70]
*470 la_oenb[71]
*471 la_oenb[72]
*472 la_oenb[73]
*473 la_oenb[74]
*474 la_oenb[75]
*475 la_oenb[76]
*476 la_oenb[77]
*477 la_oenb[78]
*478 la_oenb[79]
*479 la_oenb[7]
*480 la_oenb[80]
*481 la_oenb[81]
*482 la_oenb[82]
*483 la_oenb[83]
*484 la_oenb[84]
*485 la_oenb[85]
*486 la_oenb[86]
*487 la_oenb[87]
*488 la_oenb[88]
*489 la_oenb[89]
*490 la_oenb[8]
*491 la_oenb[90]
*492 la_oenb[91]
*493 la_oenb[92]
*494 la_oenb[93]
*495 la_oenb[94]
*496 la_oenb[95]
*497 la_oenb[96]
*498 la_oenb[97]
*499 la_oenb[98]
*500 la_oenb[99]
*501 la_oenb[9]
*502 out_1
*503 out_2
*504 out_3
*505 out_4
*506 out_5
*507 out_7
*508 net256
*509 net257
*512 wb_clk_i
*513 wb_rst_i
*514 wbs_ack_o
*515 wbs_adr_i[0]
*516 wbs_adr_i[10]
*517 wbs_adr_i[11]
*518 wbs_adr_i[12]
*519 wbs_adr_i[13]
*520 wbs_adr_i[14]
*521 wbs_adr_i[15]
*522 wbs_adr_i[16]
*523 wbs_adr_i[17]
*524 wbs_adr_i[18]
*525 wbs_adr_i[19]
*526 wbs_adr_i[1]
*527 wbs_adr_i[20]
*528 wbs_adr_i[21]
*529 wbs_adr_i[22]
*530 wbs_adr_i[23]
*531 wbs_adr_i[24]
*532 wbs_adr_i[25]
*533 wbs_adr_i[26]
*534 wbs_adr_i[27]
*535 wbs_adr_i[28]
*536 wbs_adr_i[29]
*537 wbs_adr_i[2]
*538 wbs_adr_i[30]
*539 wbs_adr_i[31]
*540 wbs_adr_i[3]
*541 wbs_adr_i[4]
*542 wbs_adr_i[5]
*543 wbs_adr_i[6]
*544 wbs_adr_i[7]
*545 wbs_adr_i[8]
*546 wbs_adr_i[9]
*547 wbs_cyc_i
*548 wbs_dat_i[0]
*549 wbs_dat_i[10]
*550 wbs_dat_i[11]
*551 wbs_dat_i[12]
*552 wbs_dat_i[13]
*553 wbs_dat_i[14]
*554 wbs_dat_i[15]
*555 wbs_dat_i[16]
*556 wbs_dat_i[17]
*557 wbs_dat_i[18]
*558 wbs_dat_i[19]
*559 wbs_dat_i[1]
*560 wbs_dat_i[20]
*561 wbs_dat_i[21]
*562 wbs_dat_i[22]
*563 wbs_dat_i[23]
*564 wbs_dat_i[24]
*565 wbs_dat_i[25]
*566 wbs_dat_i[26]
*567 wbs_dat_i[27]
*568 wbs_dat_i[28]
*569 wbs_dat_i[29]
*570 wbs_dat_i[2]
*571 wbs_dat_i[30]
*572 wbs_dat_i[31]
*573 wbs_dat_i[3]
*574 wbs_dat_i[4]
*575 wbs_dat_i[5]
*576 wbs_dat_i[6]
*577 wbs_dat_i[7]
*578 wbs_dat_i[8]
*579 wbs_dat_i[9]
*580 wbs_dat_o[0]
*581 wbs_dat_o[10]
*582 wbs_dat_o[11]
*583 net258
*584 net259
*585 net260
*586 net261
*587 net262
*588 net263
*589 net264
*590 net265
*591 wbs_dat_o[1]
*592 net266
*593 net267
*594 net268
*595 net269
*596 net270
*597 net271
*598 net272
*599 net273
*600 net274
*601 net275
*602 wbs_dat_o[2]
*603 net276
*604 net277
*605 wbs_dat_o[3]
*606 wbs_dat_o[4]
*607 wbs_dat_o[5]
*608 wbs_dat_o[6]
*609 wbs_dat_o[7]
*610 wbs_dat_o[8]
*611 wbs_dat_o[9]
*612 wbs_sel_i[0]
*613 wbs_sel_i[1]
*614 wbs_sel_i[2]
*615 wbs_sel_i[3]
*616 wbs_stb_i
*617 wbs_we_i
*618 _0000_
*619 _0001_
*620 _0002_
*621 _0003_
*622 _0004_
*623 _0005_
*624 _0006_
*625 _0007_
*626 _0008_
*627 _0009_
*628 _0010_
*629 _0011_
*630 _0012_
*631 _0013_
*632 _0014_
*633 _0015_
*634 _0016_
*635 _0017_
*636 _0018_
*637 _0019_
*638 _0020_
*639 _0021_
*640 _0022_
*641 _0023_
*642 _0024_
*643 _0025_
*644 _0026_
*645 _0027_
*646 _0028_
*647 _0029_
*648 _0030_
*649 _0031_
*650 _0032_
*651 _0033_
*652 _0034_
*653 _0035_
*654 _0036_
*655 _0037_
*656 _0038_
*657 _0039_
*658 _0040_
*659 _0041_
*660 _0042_
*661 _0043_
*662 _0044_
*663 _0045_
*664 _0046_
*665 _0047_
*666 _0048_
*667 _0049_
*668 _0050_
*669 _0051_
*670 _0052_
*671 _0053_
*672 _0054_
*673 _0055_
*674 _0056_
*675 _0057_
*676 _0058_
*677 _0059_
*678 _0060_
*679 _0061_
*680 _0062_
*681 _0063_
*682 _0064_
*683 _0065_
*684 _0066_
*685 _0067_
*686 _0068_
*687 _0069_
*688 _0070_
*689 _0071_
*690 _0072_
*691 _0073_
*692 _0074_
*693 _0075_
*694 _0076_
*695 _0077_
*696 _0078_
*697 _0079_
*698 _0080_
*699 _0081_
*700 _0082_
*701 _0083_
*702 _0084_
*703 _0085_
*704 _0086_
*705 _0087_
*706 _0088_
*707 _0089_
*708 _0090_
*709 _0091_
*710 _0092_
*711 _0093_
*712 _0094_
*713 _0095_
*714 _0096_
*715 _0097_
*716 _0098_
*717 _0099_
*718 _0100_
*719 _0101_
*720 _0102_
*721 _0103_
*722 _0104_
*723 _0105_
*724 _0106_
*725 _0107_
*726 _0108_
*727 _0109_
*728 _0110_
*729 _0111_
*730 _0112_
*731 _0113_
*732 _0114_
*733 _0115_
*734 _0116_
*735 _0117_
*736 _0118_
*737 _0119_
*738 _0120_
*739 _0121_
*740 _0122_
*741 _0123_
*742 _0124_
*743 _0125_
*744 _0126_
*745 _0127_
*746 _0128_
*747 _0129_
*748 _0130_
*749 _0131_
*750 _0132_
*751 _0133_
*752 _0134_
*753 _0135_
*754 _0136_
*755 _0137_
*756 _0138_
*757 _0139_
*758 _0140_
*759 _0141_
*760 _0142_
*761 _0143_
*762 _0144_
*763 _0145_
*764 _0146_
*765 _0147_
*766 _0148_
*767 _0149_
*768 _0150_
*769 _0151_
*770 _0152_
*771 _0153_
*772 _0154_
*773 _0155_
*774 _0156_
*775 _0157_
*776 _0158_
*777 _0159_
*778 _0160_
*779 _0161_
*780 _0162_
*781 _0163_
*782 _0164_
*783 _0165_
*784 _0166_
*785 _0167_
*786 _0168_
*787 _0169_
*788 _0170_
*789 _0171_
*790 _0172_
*791 _0173_
*792 _0174_
*793 _0175_
*794 _0176_
*795 _0177_
*796 _0178_
*797 _0179_
*798 _0180_
*799 _0181_
*800 _0182_
*801 _0183_
*802 _0184_
*803 _0185_
*804 _0186_
*805 _0187_
*806 _0188_
*807 _0189_
*808 _0190_
*809 _0191_
*810 _0192_
*811 _0193_
*812 _0194_
*813 _0195_
*814 _0196_
*815 _0197_
*816 _0198_
*817 _0199_
*818 _0200_
*819 _0201_
*820 _0202_
*821 _0203_
*822 _0204_
*823 _0205_
*824 _0206_
*825 _0207_
*826 _0208_
*827 _0209_
*828 _0210_
*829 _0211_
*830 _0212_
*831 _0213_
*832 _0214_
*833 _0215_
*834 _0216_
*835 _0217_
*836 _0218_
*837 _0219_
*838 _0220_
*839 _0221_
*840 _0222_
*841 _0223_
*842 _0224_
*843 _0225_
*844 _0226_
*845 _0227_
*846 _0228_
*847 _0229_
*848 _0230_
*849 _0231_
*850 _0232_
*851 _0233_
*852 _0234_
*853 _0235_
*854 _0236_
*855 _0237_
*856 _0238_
*857 _0239_
*858 _0240_
*859 _0241_
*860 _0242_
*861 _0243_
*862 _0244_
*863 _0245_
*864 _0246_
*865 _0247_
*866 _0248_
*867 _0249_
*868 _0250_
*869 _0251_
*870 _0252_
*871 _0253_
*872 _0254_
*873 _0255_
*874 _0256_
*875 _0257_
*876 _0258_
*877 _0259_
*878 _0260_
*879 _0261_
*880 _0262_
*881 _0263_
*882 _0264_
*883 _0265_
*884 _0266_
*885 _0267_
*886 _0268_
*887 _0269_
*888 _0270_
*889 _0271_
*890 _0272_
*891 _0273_
*892 _0274_
*893 _0275_
*894 _0276_
*895 _0277_
*896 _0278_
*897 _0279_
*898 _0280_
*899 _0281_
*900 _0282_
*901 _0283_
*902 _0284_
*903 _0285_
*904 _0286_
*905 _0287_
*906 _0288_
*907 _0289_
*908 _0290_
*909 _0291_
*910 _0292_
*911 _0293_
*912 _0294_
*913 _0295_
*914 _0296_
*915 _0297_
*916 _0298_
*917 _0299_
*918 _0300_
*919 _0301_
*920 _0302_
*921 _0303_
*922 _0304_
*923 _0305_
*924 _0306_
*925 _0307_
*926 _0308_
*927 _0309_
*928 _0310_
*929 _0311_
*930 _0312_
*931 _0313_
*932 _0314_
*933 _0315_
*934 _0316_
*935 _0317_
*936 _0318_
*937 _0319_
*938 _0320_
*939 _0321_
*940 _0322_
*941 _0323_
*942 _0324_
*943 _0325_
*944 _0326_
*945 _0327_
*946 _0328_
*947 _0329_
*948 _0330_
*949 _0331_
*950 _0332_
*951 _0333_
*952 _0334_
*953 _0335_
*954 _0336_
*955 _0337_
*956 _0338_
*957 _0339_
*958 _0340_
*959 _0341_
*960 _0342_
*961 _0343_
*962 _0344_
*963 _0345_
*964 _0346_
*965 _0347_
*966 _0348_
*967 _0349_
*968 _0350_
*969 _0351_
*970 _0352_
*971 _0353_
*972 _0354_
*973 _0355_
*974 _0356_
*975 _0357_
*976 _0358_
*977 _0359_
*978 _0360_
*979 _0361_
*980 _0362_
*981 _0363_
*982 _0364_
*983 _0365_
*984 _0366_
*985 _0367_
*986 _0368_
*987 _0369_
*988 _0370_
*989 _0371_
*990 _0372_
*991 _0373_
*992 _0374_
*993 _0375_
*994 _0376_
*995 _0377_
*996 _0378_
*997 _0379_
*998 _0380_
*999 _0381_
*1000 _0382_
*1001 _0383_
*1002 _0384_
*1003 _0385_
*1004 _0386_
*1005 _0387_
*1006 _0388_
*1007 _0389_
*1008 _0390_
*1009 _0391_
*1010 _0392_
*1011 _0393_
*1012 _0394_
*1013 _0395_
*1014 _0396_
*1015 _0397_
*1016 _0398_
*1017 _0399_
*1018 _0400_
*1019 _0401_
*1020 _0402_
*1021 _0403_
*1022 _0404_
*1023 _0405_
*1024 _0406_
*1025 _0407_
*1026 _0408_
*1027 _0409_
*1028 _0410_
*1029 _0411_
*1030 _0412_
*1031 _0413_
*1032 _0414_
*1033 _0415_
*1034 _0416_
*1035 _0417_
*1036 _0418_
*1037 _0419_
*1038 _0420_
*1039 _0421_
*1040 _0422_
*1041 _0423_
*1042 _0424_
*1043 _0425_
*1044 _0426_
*1045 _0427_
*1046 _0428_
*1047 _0429_
*1048 _0430_
*1049 _0431_
*1050 _0432_
*1051 _0433_
*1052 _0434_
*1053 _0435_
*1054 _0436_
*1055 _0437_
*1056 _0438_
*1057 _0439_
*1058 _0440_
*1059 _0441_
*1060 _0442_
*1061 _0443_
*1062 _0444_
*1063 _0445_
*1064 _0446_
*1065 _0447_
*1066 _0448_
*1067 _0449_
*1068 _0450_
*1069 _0451_
*1070 _0452_
*1071 _0453_
*1072 _0454_
*1073 _0455_
*1074 _0456_
*1075 _0457_
*1076 _0458_
*1077 _0459_
*1078 _0460_
*1079 _0461_
*1080 _0462_
*1081 _0463_
*1082 _0464_
*1083 _0465_
*1084 _0466_
*1085 _0467_
*1086 _0468_
*1087 _0469_
*1088 _0470_
*1089 _0471_
*1090 _0472_
*1091 _0473_
*1092 _0474_
*1093 _0475_
*1094 _0476_
*1095 _0477_
*1096 _0478_
*1097 _0479_
*1098 _0480_
*1099 _0481_
*1100 _0482_
*1101 _0483_
*1102 _0484_
*1103 _0485_
*1104 _0486_
*1105 _0487_
*1106 _0488_
*1107 _0489_
*1108 _0490_
*1109 _0491_
*1110 _0492_
*1111 _0493_
*1112 _0494_
*1113 _0495_
*1114 _0496_
*1115 _0497_
*1116 _0498_
*1117 _0499_
*1118 _0500_
*1119 _0501_
*1120 _0502_
*1121 _0503_
*1122 _0504_
*1123 _0505_
*1124 _0506_
*1125 _0507_
*1126 _0508_
*1127 _0509_
*1128 _0510_
*1129 _0511_
*1130 _0512_
*1131 _0513_
*1132 _0514_
*1133 _0515_
*1134 _0516_
*1135 _0517_
*1136 _0518_
*1137 _0519_
*1138 _0520_
*1139 _0521_
*1140 _0522_
*1141 _0523_
*1142 _0524_
*1143 _0525_
*1144 _0526_
*1145 _0527_
*1146 _0528_
*1147 _0529_
*1148 _0530_
*1149 _0531_
*1150 _0532_
*1151 _0533_
*1152 _0534_
*1153 _0535_
*1154 _0536_
*1155 _0537_
*1156 _0538_
*1157 _0539_
*1158 _0540_
*1159 _0541_
*1160 _0542_
*1161 _0543_
*1162 _0544_
*1163 _0545_
*1164 _0546_
*1165 _0547_
*1166 _0548_
*1167 _0549_
*1168 _0550_
*1169 _0551_
*1170 _0552_
*1171 _0553_
*1172 _0554_
*1173 _0555_
*1174 _0556_
*1175 _0557_
*1176 _0558_
*1177 _0559_
*1178 _0560_
*1179 _0561_
*1180 _0562_
*1181 _0563_
*1182 _0564_
*1183 _0565_
*1184 _0566_
*1185 _0567_
*1186 _0568_
*1187 _0569_
*1188 _0570_
*1189 _0571_
*1190 _0572_
*1191 _0573_
*1192 _0574_
*1193 _0575_
*1194 _0576_
*1195 _0577_
*1196 _0578_
*1197 _0579_
*1198 _0580_
*1199 _0581_
*1200 _0582_
*1201 _0583_
*1202 _0584_
*1203 _0585_
*1204 _0586_
*1205 _0587_
*1206 _0588_
*1207 _0589_
*1208 _0590_
*1209 _0591_
*1210 _0592_
*1211 _0593_
*1212 _0594_
*1213 _0595_
*1214 _0596_
*1215 _0597_
*1216 _0598_
*1217 _0599_
*1218 _0600_
*1219 _0601_
*1220 _0602_
*1221 _0603_
*1222 _0604_
*1223 _0605_
*1224 _0606_
*1225 _0607_
*1226 _0608_
*1227 _0609_
*1228 _0610_
*1229 _0611_
*1230 _0612_
*1231 _0613_
*1232 _0614_
*1233 _0615_
*1234 _0616_
*1235 _0617_
*1236 _0618_
*1237 _0619_
*1238 _0620_
*1239 _0621_
*1240 _0622_
*1241 _0623_
*1242 _0624_
*1243 _0625_
*1244 _0626_
*1245 _0627_
*1246 _0628_
*1247 _0629_
*1248 _0630_
*1249 _0631_
*1250 _0632_
*1251 _0633_
*1252 _0634_
*1253 _0635_
*1254 _0636_
*1255 _0637_
*1256 _0638_
*1257 _0639_
*1258 _0640_
*1259 _0641_
*1260 _0642_
*1261 _0643_
*1262 _0644_
*1263 _0645_
*1264 _0646_
*1265 _0647_
*1266 _0648_
*1267 _0649_
*1268 _0650_
*1269 _0651_
*1270 _0652_
*1271 _0653_
*1272 _0654_
*1273 _0655_
*1274 _0656_
*1275 _0657_
*1276 _0658_
*1277 _0659_
*1278 _0660_
*1279 _0661_
*1280 _0662_
*1281 _0663_
*1282 _0664_
*1283 _0665_
*1284 _0666_
*1285 _0667_
*1286 _0668_
*1287 _0669_
*1288 _0670_
*1289 _0671_
*1290 _0672_
*1291 _0673_
*1292 _0674_
*1293 _0675_
*1294 _0676_
*1295 _0677_
*1296 _0678_
*1297 _0679_
*1298 _0680_
*1299 _0681_
*1300 _0682_
*1301 _0683_
*1302 _0684_
*1303 _0685_
*1304 _0686_
*1305 _0687_
*1306 _0688_
*1307 _0689_
*1308 _0690_
*1309 _0691_
*1310 _0692_
*1311 _0693_
*1312 _0694_
*1313 _0695_
*1314 _0696_
*1315 _0697_
*1316 _0698_
*1317 _0699_
*1318 _0700_
*1319 _0701_
*1320 _0702_
*1321 _0703_
*1322 _0704_
*1323 _0705_
*1324 _0706_
*1325 _0707_
*1326 _0708_
*1327 _0709_
*1328 _0710_
*1329 _0711_
*1330 _0712_
*1331 _0713_
*1332 _0714_
*1333 _0715_
*1334 _0716_
*1335 _0717_
*1336 _0718_
*1337 _0719_
*1338 _0720_
*1339 _0721_
*1340 _0722_
*1341 _0723_
*1342 _0724_
*1343 _0725_
*1344 _0726_
*1345 _0727_
*1346 _0728_
*1347 _0729_
*1348 _0730_
*1349 _0731_
*1350 _0732_
*1351 _0733_
*1352 _0734_
*1353 _0735_
*1354 _0736_
*1355 _0737_
*1356 _0738_
*1357 _0739_
*1358 _0740_
*1359 _0741_
*1360 _0742_
*1361 _0743_
*1362 _0744_
*1363 _0745_
*1364 _0746_
*1365 _0747_
*1366 _0748_
*1367 _0749_
*1368 _0750_
*1369 _0751_
*1370 _0752_
*1371 _0753_
*1372 _0754_
*1373 _0755_
*1374 _0756_
*1375 _0757_
*1376 _0758_
*1377 _0759_
*1378 _0760_
*1379 clknet_0_wb_clk_i
*1380 clknet_4_0_0_wb_clk_i
*1381 clknet_4_10_0_wb_clk_i
*1382 clknet_4_11_0_wb_clk_i
*1383 clknet_4_12_0_wb_clk_i
*1384 clknet_4_13_0_wb_clk_i
*1385 clknet_4_14_0_wb_clk_i
*1386 clknet_4_15_0_wb_clk_i
*1387 clknet_4_1_0_wb_clk_i
*1388 clknet_4_2_0_wb_clk_i
*1389 clknet_4_3_0_wb_clk_i
*1390 clknet_4_4_0_wb_clk_i
*1391 clknet_4_5_0_wb_clk_i
*1392 clknet_4_6_0_wb_clk_i
*1393 clknet_4_7_0_wb_clk_i
*1394 clknet_4_8_0_wb_clk_i
*1395 clknet_4_9_0_wb_clk_i
*1396 net1
*1397 net10
*1398 net11
*1399 net12
*1400 net13
*1401 net14
*1402 net15
*1403 net16
*1404 net17
*1405 net18
*1406 net19
*1407 net2
*1408 net20
*1409 net21
*1410 net22
*1411 net23
*1412 net24
*1413 net25
*1414 net26
*1415 net27
*1416 net28
*1417 net29
*1418 net3
*1419 net30
*1420 net31
*1421 net32
*1422 net33
*1423 net34
*1424 net35
*1425 net36
*1426 net37
*1427 net38
*1428 net39
*1429 net4
*1430 net40
*1431 net41
*1432 net42
*1433 net43
*1434 net44
*1435 net45
*1436 net46
*1437 net47
*1438 net48
*1439 net5
*1440 net6
*1441 net7
*1442 net8
*1443 net9
*1444 rlbp_inst0\.count\[0\]
*1445 rlbp_inst0\.count\[10\]
*1446 rlbp_inst0\.count\[11\]
*1447 rlbp_inst0\.count\[1\]
*1448 rlbp_inst0\.count\[2\]
*1449 rlbp_inst0\.count\[3\]
*1450 rlbp_inst0\.count\[4\]
*1451 rlbp_inst0\.count\[5\]
*1452 rlbp_inst0\.count\[6\]
*1453 rlbp_inst0\.count\[7\]
*1454 rlbp_inst0\.count\[8\]
*1455 rlbp_inst0\.count\[9\]
*1456 rlbp_inst0\.inst10\.next_state\[0\]
*1457 rlbp_inst0\.inst10\.next_state\[1\]
*1458 rlbp_inst0\.inst10\.state\[0\]
*1459 rlbp_inst0\.inst10\.state\[1\]
*1460 rlbp_inst0\.inst10\.time_down_7\[0\]
*1461 rlbp_inst0\.inst10\.time_down_7\[10\]
*1462 rlbp_inst0\.inst10\.time_down_7\[1\]
*1463 rlbp_inst0\.inst10\.time_down_7\[2\]
*1464 rlbp_inst0\.inst10\.time_down_7\[3\]
*1465 rlbp_inst0\.inst10\.time_down_7\[4\]
*1466 rlbp_inst0\.inst10\.time_down_7\[5\]
*1467 rlbp_inst0\.inst10\.time_down_7\[6\]
*1468 rlbp_inst0\.inst10\.time_down_7\[7\]
*1469 rlbp_inst0\.inst10\.time_down_7\[8\]
*1470 rlbp_inst0\.inst10\.time_down_7\[9\]
*1471 rlbp_inst0\.inst10\.time_up_7\[0\]
*1472 rlbp_inst0\.inst10\.time_up_7\[10\]
*1473 rlbp_inst0\.inst10\.time_up_7\[1\]
*1474 rlbp_inst0\.inst10\.time_up_7\[2\]
*1475 rlbp_inst0\.inst10\.time_up_7\[3\]
*1476 rlbp_inst0\.inst10\.time_up_7\[4\]
*1477 rlbp_inst0\.inst10\.time_up_7\[5\]
*1478 rlbp_inst0\.inst10\.time_up_7\[6\]
*1479 rlbp_inst0\.inst10\.time_up_7\[7\]
*1480 rlbp_inst0\.inst10\.time_up_7\[8\]
*1481 rlbp_inst0\.inst10\.time_up_7\[9\]
*1482 rlbp_inst0\.inst5\.next_state\[0\]
*1483 rlbp_inst0\.inst5\.next_state\[1\]
*1484 rlbp_inst0\.inst5\.state\[0\]
*1485 rlbp_inst0\.inst5\.state\[1\]
*1486 rlbp_inst0\.inst5\.time_down_1\[0\]
*1487 rlbp_inst0\.inst5\.time_down_1\[10\]
*1488 rlbp_inst0\.inst5\.time_down_1\[1\]
*1489 rlbp_inst0\.inst5\.time_down_1\[2\]
*1490 rlbp_inst0\.inst5\.time_down_1\[3\]
*1491 rlbp_inst0\.inst5\.time_down_1\[4\]
*1492 rlbp_inst0\.inst5\.time_down_1\[5\]
*1493 rlbp_inst0\.inst5\.time_down_1\[6\]
*1494 rlbp_inst0\.inst5\.time_down_1\[7\]
*1495 rlbp_inst0\.inst5\.time_down_1\[8\]
*1496 rlbp_inst0\.inst5\.time_down_1\[9\]
*1497 rlbp_inst0\.inst5\.time_up_1\[0\]
*1498 rlbp_inst0\.inst5\.time_up_1\[10\]
*1499 rlbp_inst0\.inst5\.time_up_1\[1\]
*1500 rlbp_inst0\.inst5\.time_up_1\[2\]
*1501 rlbp_inst0\.inst5\.time_up_1\[3\]
*1502 rlbp_inst0\.inst5\.time_up_1\[4\]
*1503 rlbp_inst0\.inst5\.time_up_1\[5\]
*1504 rlbp_inst0\.inst5\.time_up_1\[6\]
*1505 rlbp_inst0\.inst5\.time_up_1\[7\]
*1506 rlbp_inst0\.inst5\.time_up_1\[8\]
*1507 rlbp_inst0\.inst5\.time_up_1\[9\]
*1508 rlbp_inst0\.inst6\.next_state\[0\]
*1509 rlbp_inst0\.inst6\.next_state\[1\]
*1510 rlbp_inst0\.inst6\.state\[0\]
*1511 rlbp_inst0\.inst6\.state\[1\]
*1512 rlbp_inst0\.inst6\.time_down_2\[0\]
*1513 rlbp_inst0\.inst6\.time_down_2\[10\]
*1514 rlbp_inst0\.inst6\.time_down_2\[1\]
*1515 rlbp_inst0\.inst6\.time_down_2\[2\]
*1516 rlbp_inst0\.inst6\.time_down_2\[3\]
*1517 rlbp_inst0\.inst6\.time_down_2\[4\]
*1518 rlbp_inst0\.inst6\.time_down_2\[5\]
*1519 rlbp_inst0\.inst6\.time_down_2\[6\]
*1520 rlbp_inst0\.inst6\.time_down_2\[7\]
*1521 rlbp_inst0\.inst6\.time_down_2\[8\]
*1522 rlbp_inst0\.inst6\.time_down_2\[9\]
*1523 rlbp_inst0\.inst6\.time_up_2\[0\]
*1524 rlbp_inst0\.inst6\.time_up_2\[10\]
*1525 rlbp_inst0\.inst6\.time_up_2\[1\]
*1526 rlbp_inst0\.inst6\.time_up_2\[2\]
*1527 rlbp_inst0\.inst6\.time_up_2\[3\]
*1528 rlbp_inst0\.inst6\.time_up_2\[4\]
*1529 rlbp_inst0\.inst6\.time_up_2\[5\]
*1530 rlbp_inst0\.inst6\.time_up_2\[6\]
*1531 rlbp_inst0\.inst6\.time_up_2\[7\]
*1532 rlbp_inst0\.inst6\.time_up_2\[8\]
*1533 rlbp_inst0\.inst6\.time_up_2\[9\]
*1534 rlbp_inst0\.inst7\.next_state\[0\]
*1535 rlbp_inst0\.inst7\.next_state\[1\]
*1536 rlbp_inst0\.inst7\.state\[0\]
*1537 rlbp_inst0\.inst7\.state\[1\]
*1538 rlbp_inst0\.inst7\.time_down_3\[0\]
*1539 rlbp_inst0\.inst7\.time_down_3\[10\]
*1540 rlbp_inst0\.inst7\.time_down_3\[1\]
*1541 rlbp_inst0\.inst7\.time_down_3\[2\]
*1542 rlbp_inst0\.inst7\.time_down_3\[3\]
*1543 rlbp_inst0\.inst7\.time_down_3\[4\]
*1544 rlbp_inst0\.inst7\.time_down_3\[5\]
*1545 rlbp_inst0\.inst7\.time_down_3\[6\]
*1546 rlbp_inst0\.inst7\.time_down_3\[7\]
*1547 rlbp_inst0\.inst7\.time_down_3\[8\]
*1548 rlbp_inst0\.inst7\.time_down_3\[9\]
*1549 rlbp_inst0\.inst7\.time_up_3\[0\]
*1550 rlbp_inst0\.inst7\.time_up_3\[10\]
*1551 rlbp_inst0\.inst7\.time_up_3\[1\]
*1552 rlbp_inst0\.inst7\.time_up_3\[2\]
*1553 rlbp_inst0\.inst7\.time_up_3\[3\]
*1554 rlbp_inst0\.inst7\.time_up_3\[4\]
*1555 rlbp_inst0\.inst7\.time_up_3\[5\]
*1556 rlbp_inst0\.inst7\.time_up_3\[6\]
*1557 rlbp_inst0\.inst7\.time_up_3\[7\]
*1558 rlbp_inst0\.inst7\.time_up_3\[8\]
*1559 rlbp_inst0\.inst7\.time_up_3\[9\]
*1560 rlbp_inst0\.inst8\.next_state\[0\]
*1561 rlbp_inst0\.inst8\.next_state\[1\]
*1562 rlbp_inst0\.inst8\.state\[0\]
*1563 rlbp_inst0\.inst8\.state\[1\]
*1564 rlbp_inst0\.inst8\.time_down_4\[0\]
*1565 rlbp_inst0\.inst8\.time_down_4\[10\]
*1566 rlbp_inst0\.inst8\.time_down_4\[1\]
*1567 rlbp_inst0\.inst8\.time_down_4\[2\]
*1568 rlbp_inst0\.inst8\.time_down_4\[3\]
*1569 rlbp_inst0\.inst8\.time_down_4\[4\]
*1570 rlbp_inst0\.inst8\.time_down_4\[5\]
*1571 rlbp_inst0\.inst8\.time_down_4\[6\]
*1572 rlbp_inst0\.inst8\.time_down_4\[7\]
*1573 rlbp_inst0\.inst8\.time_down_4\[8\]
*1574 rlbp_inst0\.inst8\.time_down_4\[9\]
*1575 rlbp_inst0\.inst8\.time_up_4\[0\]
*1576 rlbp_inst0\.inst8\.time_up_4\[10\]
*1577 rlbp_inst0\.inst8\.time_up_4\[1\]
*1578 rlbp_inst0\.inst8\.time_up_4\[2\]
*1579 rlbp_inst0\.inst8\.time_up_4\[3\]
*1580 rlbp_inst0\.inst8\.time_up_4\[4\]
*1581 rlbp_inst0\.inst8\.time_up_4\[5\]
*1582 rlbp_inst0\.inst8\.time_up_4\[6\]
*1583 rlbp_inst0\.inst8\.time_up_4\[7\]
*1584 rlbp_inst0\.inst8\.time_up_4\[8\]
*1585 rlbp_inst0\.inst8\.time_up_4\[9\]
*1586 rlbp_inst0\.inst9\.next_state\[0\]
*1587 rlbp_inst0\.inst9\.next_state\[1\]
*1588 rlbp_inst0\.inst9\.state\[0\]
*1589 rlbp_inst0\.inst9\.state\[1\]
*1590 rlbp_inst0\.inst9\.time_down_5\[0\]
*1591 rlbp_inst0\.inst9\.time_down_5\[10\]
*1592 rlbp_inst0\.inst9\.time_down_5\[1\]
*1593 rlbp_inst0\.inst9\.time_down_5\[2\]
*1594 rlbp_inst0\.inst9\.time_down_5\[3\]
*1595 rlbp_inst0\.inst9\.time_down_5\[4\]
*1596 rlbp_inst0\.inst9\.time_down_5\[5\]
*1597 rlbp_inst0\.inst9\.time_down_5\[6\]
*1598 rlbp_inst0\.inst9\.time_down_5\[7\]
*1599 rlbp_inst0\.inst9\.time_down_5\[8\]
*1600 rlbp_inst0\.inst9\.time_down_5\[9\]
*1601 rlbp_inst0\.inst9\.time_up_5\[0\]
*1602 rlbp_inst0\.inst9\.time_up_5\[10\]
*1603 rlbp_inst0\.inst9\.time_up_5\[1\]
*1604 rlbp_inst0\.inst9\.time_up_5\[2\]
*1605 rlbp_inst0\.inst9\.time_up_5\[3\]
*1606 rlbp_inst0\.inst9\.time_up_5\[4\]
*1607 rlbp_inst0\.inst9\.time_up_5\[5\]
*1608 rlbp_inst0\.inst9\.time_up_5\[6\]
*1609 rlbp_inst0\.inst9\.time_up_5\[7\]
*1610 rlbp_inst0\.inst9\.time_up_5\[8\]
*1611 rlbp_inst0\.inst9\.time_up_5\[9\]
*1612 ANTENNA__0775__B
*1613 ANTENNA__0776__B
*1614 ANTENNA__0781__A
*1615 ANTENNA__0781__C
*1616 ANTENNA__0782__A
*1617 ANTENNA__0784__C
*1618 ANTENNA__0787__B1
*1619 ANTENNA__0789__A2
*1620 ANTENNA__0793__A
*1621 ANTENNA__0793__B
*1622 ANTENNA__0796__A
*1623 ANTENNA__0800__A1
*1624 ANTENNA__0800__A2
*1625 ANTENNA__0800__B1
*1626 ANTENNA__0803__A
*1627 ANTENNA__0804__A1
*1628 ANTENNA__0805__D
*1629 ANTENNA__0806__A1
*1630 ANTENNA__0808__A
*1631 ANTENNA__0809__A
*1632 ANTENNA__0810__B2
*1633 ANTENNA__0812__A1
*1634 ANTENNA__0837__A
*1635 ANTENNA__0847__D1
*1636 ANTENNA__0867__D
*1637 ANTENNA__0868__D
*1638 ANTENNA__0869__A
*1639 ANTENNA__0869__B
*1640 ANTENNA__0869__C
*1641 ANTENNA__0874__A
*1642 ANTENNA__0874__B
*1643 ANTENNA__0874__C
*1644 ANTENNA__0876__A
*1645 ANTENNA__0876__B
*1646 ANTENNA__0879__A1
*1647 ANTENNA__0880__A1
*1648 ANTENNA__0881__D
*1649 ANTENNA__0896__B
*1650 ANTENNA__0908__A
*1651 ANTENNA__0909__A
*1652 ANTENNA__0911__A
*1653 ANTENNA__0912__A1
*1654 ANTENNA__0912__C1
*1655 ANTENNA__0913__A
*1656 ANTENNA__0914__C1
*1657 ANTENNA__0915__A
*1658 ANTENNA__0916__A1
*1659 ANTENNA__0916__C1
*1660 ANTENNA__0917__A
*1661 ANTENNA__0918__C1
*1662 ANTENNA__0919__A
*1663 ANTENNA__0920__A
*1664 ANTENNA__0925__A
*1665 ANTENNA__0927__A
*1666 ANTENNA__0929__A
*1667 ANTENNA__0931__A
*1668 ANTENNA__0933__A
*1669 ANTENNA__0936__A
*1670 ANTENNA__0938__A
*1671 ANTENNA__0939__B
*1672 ANTENNA__0946__A1
*1673 ANTENNA__0947__A
*1674 ANTENNA__0950__A
*1675 ANTENNA__0951__A1
*1676 ANTENNA__0952__A
*1677 ANTENNA__0954__A1
*1678 ANTENNA__0955__A
*1679 ANTENNA__0956__A
*1680 ANTENNA__0958__A1
*1681 ANTENNA__0959__A
*1682 ANTENNA__0961__A1
*1683 ANTENNA__0962__A
*1684 ANTENNA__0965__A1
*1685 ANTENNA__0966__A
*1686 ANTENNA__0968__A1
*1687 ANTENNA__0969__A
*1688 ANTENNA__0971__A1
*1689 ANTENNA__0972__A
*1690 ANTENNA__0975__A1
*1691 ANTENNA__0976__A
*1692 ANTENNA__0978__A1
*1693 ANTENNA__0979__A
*1694 ANTENNA__0982__B
*1695 ANTENNA__0988__A1
*1696 ANTENNA__0991__A
*1697 ANTENNA__0992__A1
*1698 ANTENNA__0993__A
*1699 ANTENNA__0994__A
*1700 ANTENNA__0996__A1
*1701 ANTENNA__0997__A
*1702 ANTENNA__0998__A1
*1703 ANTENNA__1000__A1
*1704 ANTENNA__1003__A1
*1705 ANTENNA__1005__A1
*1706 ANTENNA__1008__A1
*1707 ANTENNA__1010__A1
*1708 ANTENNA__1012__A1
*1709 ANTENNA__1016__B_N
*1710 ANTENNA__1020__A
*1711 ANTENNA__1023__A
*1712 ANTENNA__1025__A
*1713 ANTENNA__1026__A1
*1714 ANTENNA__1027__A
*1715 ANTENNA__1029__A1
*1716 ANTENNA__1030__A
*1717 ANTENNA__1031__A1
*1718 ANTENNA__1033__A1
*1719 ANTENNA__1034__A
*1720 ANTENNA__1035__A1
*1721 ANTENNA__1039__A1
*1722 ANTENNA__1042__A1
*1723 ANTENNA__1044__A1
*1724 ANTENNA__1046__A1
*1725 ANTENNA__1048__A1
*1726 ANTENNA__1054__A
*1727 ANTENNA__1057__A
*1728 ANTENNA__1061__A1
*1729 ANTENNA__1063__A1
*1730 ANTENNA__1065__A1
*1731 ANTENNA__1067__A1
*1732 ANTENNA__1069__A1
*1733 ANTENNA__1073__A