*SPEF "ieee 1481-1999"
*DESIGN "rlbp_macro"
*DATE "11:11:11 Fri 11 11, 1111"
*VENDOR "OpenRCX"
*PROGRAM "Parallel Extraction"
*VERSION "1.0"
*DESIGN_FLOW "NAME_SCOPE LOCAL" "PIN_CAP NONE"
*DIVIDER /
*DELIMITER :
*BUS_DELIMITER []
*T_UNIT 1 NS
*C_UNIT 1 PF
*R_UNIT 1 OHM
*L_UNIT 1 HENRY

*NAME_MAP
*1 io_in[0]
*2 io_in[10]
*3 io_in[11]
*4 io_in[12]
*5 io_in[13]
*6 io_in[14]
*7 io_in[15]
*8 io_in[16]
*9 io_in[17]
*10 io_in[18]
*11 io_in[19]
*12 io_in[1]
*13 io_in[20]
*14 io_in[21]
*15 io_in[22]
*16 io_in[23]
*17 io_in[24]
*18 io_in[25]
*19 io_in[26]
*20 io_in[27]
*21 io_in[28]
*22 io_in[29]
*23 io_in[2]
*24 io_in[30]
*25 io_in[31]
*26 io_in[32]
*27 io_in[33]
*28 io_in[34]
*29 io_in[35]
*30 io_in[36]
*31 io_in[37]
*32 io_in[3]
*33 io_in[4]
*34 io_in[5]
*35 io_in[6]
*36 io_in[7]
*37 io_in[8]
*38 io_in[9]
*39 net48
*40 net58
*41 net59
*42 net60
*43 net61
*44 net62
*45 net63
*46 net64
*47 net65
*48 net66
*49 net67
*50 net49
*51 net68
*52 net69
*53 net70
*54 net71
*55 net72
*56 net73
*57 net74
*58 net75
*59 net76
*60 net77
*61 net50
*62 net78
*63 net79
*64 net80
*65 net81
*66 net82
*67 net83
*68 net84
*69 net85
*70 net51
*71 net52
*72 net53
*73 net54
*74 net55
*75 net56
*76 net57
*77 net86
*78 net96
*79 net97
*80 net98
*81 net99
*82 net100
*83 net101
*84 net102
*85 net103
*86 net104
*87 net105
*88 net87
*89 net106
*90 net107
*91 net108
*92 net109
*93 net110
*94 net111
*95 net112
*96 net113
*97 net114
*98 net115
*99 net88
*100 net116
*101 net117
*102 net118
*103 net119
*104 net120
*105 net121
*106 net122
*107 net123
*108 net89
*109 net90
*110 net91
*111 net92
*112 net93
*113 net94
*114 net95
*115 net124
*116 net125
*117 net126
*118 la_data_in[0]
*119 la_data_in[100]
*120 la_data_in[101]
*121 la_data_in[102]
*122 la_data_in[103]
*123 la_data_in[104]
*124 la_data_in[105]
*125 la_data_in[106]
*126 la_data_in[107]
*127 la_data_in[108]
*128 la_data_in[109]
*129 la_data_in[10]
*130 la_data_in[110]
*131 la_data_in[111]
*132 la_data_in[112]
*133 la_data_in[113]
*134 la_data_in[114]
*135 la_data_in[115]
*136 la_data_in[116]
*137 la_data_in[117]
*138 la_data_in[118]
*139 la_data_in[119]
*140 la_data_in[11]
*141 la_data_in[120]
*142 la_data_in[121]
*143 la_data_in[122]
*144 la_data_in[123]
*145 la_data_in[124]
*146 la_data_in[125]
*147 la_data_in[126]
*148 la_data_in[127]
*149 la_data_in[12]
*150 la_data_in[13]
*151 la_data_in[14]
*152 la_data_in[15]
*153 la_data_in[16]
*154 la_data_in[17]
*155 la_data_in[18]
*156 la_data_in[19]
*157 la_data_in[1]
*158 la_data_in[20]
*159 la_data_in[21]
*160 la_data_in[22]
*161 la_data_in[23]
*162 la_data_in[24]
*163 la_data_in[25]
*164 la_data_in[26]
*165 la_data_in[27]
*166 la_data_in[28]
*167 la_data_in[29]
*168 la_data_in[2]
*169 la_data_in[30]
*170 la_data_in[31]
*171 la_data_in[32]
*172 la_data_in[33]
*173 la_data_in[34]
*174 la_data_in[35]
*175 la_data_in[36]
*176 la_data_in[37]
*177 la_data_in[38]
*178 la_data_in[39]
*179 la_data_in[3]
*180 la_data_in[40]
*181 la_data_in[41]
*182 la_data_in[42]
*183 la_data_in[43]
*184 la_data_in[44]
*185 la_data_in[45]
*186 la_data_in[46]
*187 la_data_in[47]
*188 la_data_in[48]
*189 la_data_in[49]
*190 la_data_in[4]
*191 la_data_in[50]
*192 la_data_in[51]
*193 la_data_in[52]
*194 la_data_in[53]
*195 la_data_in[54]
*196 la_data_in[55]
*197 la_data_in[56]
*198 la_data_in[57]
*199 la_data_in[58]
*200 la_data_in[59]
*201 la_data_in[5]
*202 la_data_in[60]
*203 la_data_in[61]
*204 la_data_in[62]
*205 la_data_in[63]
*206 la_data_in[64]
*207 la_data_in[65]
*208 la_data_in[66]
*209 la_data_in[67]
*210 la_data_in[68]
*211 la_data_in[69]
*212 la_data_in[6]
*213 la_data_in[70]
*214 la_data_in[71]
*215 la_data_in[72]
*216 la_data_in[73]
*217 la_data_in[74]
*218 la_data_in[75]
*219 la_data_in[76]
*220 la_data_in[77]
*221 la_data_in[78]
*222 la_data_in[79]
*223 la_data_in[7]
*224 la_data_in[80]
*225 la_data_in[81]
*226 la_data_in[82]
*227 la_data_in[83]
*228 la_data_in[84]
*229 la_data_in[85]
*230 la_data_in[86]
*231 la_data_in[87]
*232 la_data_in[88]
*233 la_data_in[89]
*234 la_data_in[8]
*235 la_data_in[90]
*236 la_data_in[91]
*237 la_data_in[92]
*238 la_data_in[93]
*239 la_data_in[94]
*240 la_data_in[95]
*241 la_data_in[96]
*242 la_data_in[97]
*243 la_data_in[98]
*244 la_data_in[99]
*245 la_data_in[9]
*246 net127
*247 net214
*248 net215
*249 net216
*250 net217
*251 net218
*252 net219
*253 net220
*254 net221
*255 net222
*256 net223
*257 net137
*258 net224
*259 net225
*260 net226
*261 net227
*262 net228
*263 net229
*264 net230
*265 net231
*266 net232
*267 net233
*268 net138
*269 net234
*270 net235
*271 net236
*272 net237
*273 net238
*274 net239
*275 net240
*276 net241
*277 net139
*278 net140
*279 net141
*280 net142
*281 net143
*282 net144
*283 net145
*284 net146
*285 net128
*286 net147
*287 net148
*288 net149
*289 net150
*290 net151
*291 net152
*292 net153
*293 net154
*294 net155
*295 net156
*296 net129
*297 net157
*298 net158
*299 net159
*300 net160
*301 net161
*302 net162
*303 net163
*304 net164
*305 net165
*306 net166
*307 net130
*308 la_data_out[40]
*309 la_data_out[41]
*310 la_data_out[42]
*311 la_data_out[43]
*312 la_data_out[44]
*313 la_data_out[45]
*314 la_data_out[46]
*315 la_data_out[47]
*316 la_data_out[48]
*317 la_data_out[49]
*318 net131
*319 la_data_out[50]
*320 la_data_out[51]
*321 la_data_out[52]
*322 net167
*323 net168
*324 net169
*325 net170
*326 net171
*327 net172
*328 net173
*329 net132
*330 net174
*331 net175
*332 net176
*333 net177
*334 net178
*335 net179
*336 net180
*337 net181
*338 net182
*339 net183
*340 net133
*341 net184
*342 net185
*343 net186
*344 net187
*345 net188
*346 net189
*347 net190
*348 net191
*349 net192
*350 net193
*351 net134
*352 net194
*353 net195
*354 net196
*355 net197
*356 net198
*357 net199
*358 net200
*359 net201
*360 net202
*361 net203
*362 net135
*363 net204
*364 net205
*365 net206
*366 net207
*367 net208
*368 net209
*369 net210
*370 net211
*371 net212
*372 net213
*373 net136
*374 la_oenb[0]
*375 la_oenb[100]
*376 la_oenb[101]
*377 la_oenb[102]
*378 la_oenb[103]
*379 la_oenb[104]
*380 la_oenb[105]
*381 la_oenb[106]
*382 la_oenb[107]
*383 la_oenb[108]
*384 la_oenb[109]
*385 la_oenb[10]
*386 la_oenb[110]
*387 la_oenb[111]
*388 la_oenb[112]
*389 la_oenb[113]
*390 la_oenb[114]
*391 la_oenb[115]
*392 la_oenb[116]
*393 la_oenb[117]
*394 la_oenb[118]
*395 la_oenb[119]
*396 la_oenb[11]
*397 la_oenb[120]
*398 la_oenb[121]
*399 la_oenb[122]
*400 la_oenb[123]
*401 la_oenb[124]
*402 la_oenb[125]
*403 la_oenb[126]
*404 la_oenb[127]
*405 la_oenb[12]
*406 la_oenb[13]
*407 la_oenb[14]
*408 la_oenb[15]
*409 la_oenb[16]
*410 la_oenb[17]
*411 la_oenb[18]
*412 la_oenb[19]
*413 la_oenb[1]
*414 la_oenb[20]
*415 la_oenb[21]
*416 la_oenb[22]
*417 la_oenb[23]
*418 la_oenb[24]
*419 la_oenb[25]
*420 la_oenb[26]
*421 la_oenb[27]
*422 la_oenb[28]
*423 la_oenb[29]
*424 la_oenb[2]
*425 la_oenb[30]
*426 la_oenb[31]
*427 la_oenb[32]
*428 la_oenb[33]
*429 la_oenb[34]
*430 la_oenb[35]
*431 la_oenb[36]
*432 la_oenb[37]
*433 la_oenb[38]
*434 la_oenb[39]
*435 la_oenb[3]
*436 la_oenb[40]
*437 la_oenb[41]
*438 la_oenb[42]
*439 la_oenb[43]
*440 la_oenb[44]
*441 la_oenb[45]
*442 la_oenb[46]
*443 la_oenb[47]
*444 la_oenb[48]
*445 la_oenb[49]
*446 la_oenb[4]
*447 la_oenb[50]
*448 la_oenb[51]
*449 la_oenb[52]
*450 la_oenb[53]
*451 la_oenb[54]
*452 la_oenb[55]
*453 la_oenb[56]
*454 la_oenb[57]
*455 la_oenb[58]
*456 la_oenb[59]
*457 la_oenb[5]
*458 la_oenb[60]
*459 la_oenb[61]
*460 la_oenb[62]
*461 la_oenb[63]
*462 la_oenb[64]
*463 la_oenb[65]
*464 la_oenb[66]
*465 la_oenb[67]
*466 la_oenb[68]
*467 la_oenb[69]
*468 la_oenb[6]
*469 la_oenb[70]
*470 la_oenb[71]
*471 la_oenb[72]
*472 la_oenb[73]
*473 la_oenb[74]
*474 la_oenb[75]
*475 la_oenb[76]
*476 la_oenb[77]
*477 la_oenb[78]
*478 la_oenb[79]
*479 la_oenb[7]
*480 la_oenb[80]
*481 la_oenb[81]
*482 la_oenb[82]
*483 la_oenb[83]
*484 la_oenb[84]
*485 la_oenb[85]
*486 la_oenb[86]
*487 la_oenb[87]
*488 la_oenb[88]
*489 la_oenb[89]
*490 la_oenb[8]
*491 la_oenb[90]
*492 la_oenb[91]
*493 la_oenb[92]
*494 la_oenb[93]
*495 la_oenb[94]
*496 la_oenb[95]
*497 la_oenb[96]
*498 la_oenb[97]
*499 la_oenb[98]
*500 la_oenb[99]
*501 la_oenb[9]
*502 net242
*505 wb_clk_i
*506 wb_rst_i
*507 net243
*508 wbs_adr_i[0]
*509 wbs_adr_i[10]
*510 wbs_adr_i[11]
*511 wbs_adr_i[12]
*512 wbs_adr_i[13]
*513 wbs_adr_i[14]
*514 wbs_adr_i[15]
*515 wbs_adr_i[16]
*516 wbs_adr_i[17]
*517 wbs_adr_i[18]
*518 wbs_adr_i[19]
*519 wbs_adr_i[1]
*520 wbs_adr_i[20]
*521 wbs_adr_i[21]
*522 wbs_adr_i[22]
*523 wbs_adr_i[23]
*524 wbs_adr_i[24]
*525 wbs_adr_i[25]
*526 wbs_adr_i[26]
*527 wbs_adr_i[27]
*528 wbs_adr_i[28]
*529 wbs_adr_i[29]
*530 wbs_adr_i[2]
*531 wbs_adr_i[30]
*532 wbs_adr_i[31]
*533 wbs_adr_i[3]
*534 wbs_adr_i[4]
*535 wbs_adr_i[5]
*536 wbs_adr_i[6]
*537 wbs_adr_i[7]
*538 wbs_adr_i[8]
*539 wbs_adr_i[9]
*540 wbs_cyc_i
*541 wbs_dat_i[0]
*542 wbs_dat_i[10]
*543 wbs_dat_i[11]
*544 wbs_dat_i[12]
*545 wbs_dat_i[13]
*546 wbs_dat_i[14]
*547 wbs_dat_i[15]
*548 wbs_dat_i[16]
*549 wbs_dat_i[17]
*550 wbs_dat_i[18]
*551 wbs_dat_i[19]
*552 wbs_dat_i[1]
*553 wbs_dat_i[20]
*554 wbs_dat_i[21]
*555 wbs_dat_i[22]
*556 wbs_dat_i[23]
*557 wbs_dat_i[24]
*558 wbs_dat_i[25]
*559 wbs_dat_i[26]
*560 wbs_dat_i[27]
*561 wbs_dat_i[28]
*562 wbs_dat_i[29]
*563 wbs_dat_i[2]
*564 wbs_dat_i[30]
*565 wbs_dat_i[31]
*566 wbs_dat_i[3]
*567 wbs_dat_i[4]
*568 wbs_dat_i[5]
*569 wbs_dat_i[6]
*570 wbs_dat_i[7]
*571 wbs_dat_i[8]
*572 wbs_dat_i[9]
*573 wbs_dat_o[0]
*574 wbs_dat_o[10]
*575 wbs_dat_o[11]
*576 net244
*577 net245
*578 net246
*579 net247
*580 net248
*581 net249
*582 net250
*583 net251
*584 wbs_dat_o[1]
*585 net252
*586 net253
*587 net254
*588 net255
*589 net256
*590 net257
*591 net258
*592 net259
*593 net260
*594 net261
*595 wbs_dat_o[2]
*596 net262
*597 net263
*598 wbs_dat_o[3]
*599 wbs_dat_o[4]
*600 wbs_dat_o[5]
*601 wbs_dat_o[6]
*602 wbs_dat_o[7]
*603 wbs_dat_o[8]
*604 wbs_dat_o[9]
*605 wbs_sel_i[0]
*606 wbs_sel_i[1]
*607 wbs_sel_i[2]
*608 wbs_sel_i[3]
*609 wbs_stb_i
*610 wbs_we_i
*611 _000_
*612 _001_
*613 _002_
*614 _003_
*615 _004_
*616 _005_
*617 _006_
*618 _007_
*619 _008_
*620 _009_
*621 _010_
*622 _011_
*623 _012_
*624 _013_
*625 _014_
*626 _015_
*627 _016_
*628 _017_
*629 _018_
*630 _019_
*631 _020_
*632 _021_
*633 _022_
*634 _023_
*635 _024_
*636 _025_
*637 _026_
*638 _027_
*639 _028_
*640 _029_
*641 _030_
*642 _031_
*643 _032_
*644 _033_
*645 _034_
*646 _035_
*647 _036_
*648 _037_
*649 _038_
*650 _039_
*651 _040_
*652 _041_
*653 _042_
*654 _043_
*655 _044_
*656 _045_
*657 _046_
*658 _047_
*659 _048_
*660 _049_
*661 _050_
*662 _051_
*663 _052_
*664 _053_
*665 _054_
*666 _055_
*667 _056_
*668 _057_
*669 _058_
*670 _059_
*671 _060_
*672 _061_
*673 _062_
*674 _063_
*675 _064_
*676 _065_
*677 _066_
*678 _067_
*679 _068_
*680 _069_
*681 _070_
*682 _071_
*683 _072_
*684 _073_
*685 _074_
*686 _075_
*687 _076_
*688 _077_
*689 _078_
*690 _079_
*691 _080_
*692 _081_
*693 _082_
*694 _083_
*695 _084_
*696 _085_
*697 _086_
*698 _087_
*699 _088_
*700 _089_
*701 _090_
*702 _091_
*703 _092_
*704 _093_
*705 _094_
*706 _095_
*707 _096_
*708 _097_
*709 _098_
*710 _099_
*711 _100_
*712 _101_
*713 _102_
*714 _103_
*715 _104_
*716 _105_
*717 _106_
*718 _107_
*719 _108_
*720 _109_
*721 _110_
*722 _111_
*723 _112_
*724 _113_
*725 _114_
*726 _115_
*727 _116_
*728 _117_
*729 _118_
*730 _119_
*731 _120_
*732 _121_
*733 _122_
*734 _123_
*735 _124_
*736 _125_
*737 _126_
*738 _127_
*739 _128_
*740 _129_
*741 _130_
*742 _131_
*743 _132_
*744 _133_
*745 _134_
*746 _135_
*747 _136_
*748 _137_
*749 _138_
*750 _139_
*751 _140_
*752 _141_
*753 _142_
*754 _143_
*755 _144_
*756 _145_
*757 _146_
*758 _147_
*759 _148_
*760 _149_
*761 _150_
*762 _151_
*763 _152_
*764 _153_
*765 _154_
*766 _155_
*767 _156_
*768 _157_
*769 _158_
*770 _159_
*771 _160_
*772 _161_
*773 _162_
*774 _163_
*775 _164_
*776 _165_
*777 _166_
*778 clknet_0_wb_clk_i
*779 clknet_2_0__leaf_wb_clk_i
*780 clknet_2_1__leaf_wb_clk_i
*781 clknet_2_2__leaf_wb_clk_i
*782 clknet_2_3__leaf_wb_clk_i
*783 net1
*784 net10
*785 net11
*786 net12
*787 net13
*788 net14
*789 net15
*790 net16
*791 net17
*792 net18
*793 net19
*794 net2
*795 net20
*796 net21
*797 net22
*798 net23
*799 net24
*800 net25
*801 net26
*802 net27
*803 net28
*804 net29
*805 net3
*806 net30
*807 net31
*808 net32
*809 net33
*810 net34
*811 net35
*812 net36
*813 net37
*814 net38
*815 net39
*816 net4
*817 net40
*818 net41
*819 net42
*820 net43
*821 net44
*822 net45
*823 net46
*824 net47
*825 net5
*826 net6
*827 net7
*828 net8
*829 net9
*830 rlbp_inst0\.d\[0\]
*831 rlbp_inst0\.d\[1\]
*832 rlbp_inst0\.d\[2\]
*833 rlbp_inst0\.d\[3\]
*834 rlbp_inst0\.data_in
*835 rlbp_inst0\.data_net\[2\]
*836 rlbp_inst0\.data_sel\[0\]
*837 rlbp_inst0\.data_sel\[1\]
*838 rlbp_inst0\.gpio_start
*839 rlbp_inst0\.inst1\.ce_d1
*840 rlbp_inst0\.inst1\.ce_d2
*841 rlbp_inst0\.inst1\.ce_d3
*842 rlbp_inst0\.inst1\.logic_analyzer_start
*843 rlbp_inst0\.inst1\.next_state_rlbp\[0\]
*844 rlbp_inst0\.inst1\.next_state_rlbp\[1\]
*845 rlbp_inst0\.inst1\.next_state_rlbp\[2\]
*846 rlbp_inst0\.inst1\.next_state_rlbp\[3\]
*847 rlbp_inst0\.inst1\.next_state_rlbp\[4\]
*848 rlbp_inst0\.inst1\.state_rlbp\[0\]
*849 rlbp_inst0\.inst1\.state_rlbp\[1\]
*850 rlbp_inst0\.inst1\.state_rlbp\[2\]
*851 rlbp_inst0\.inst1\.state_rlbp\[3\]
*852 rlbp_inst0\.inst1\.state_rlbp\[4\]
*853 ANTENNA__167__B
*854 ANTENNA__167__C_N
*855 ANTENNA__168__A0
*856 ANTENNA__168__A1
*857 ANTENNA__170__A1
*858 ANTENNA__172__B
*859 ANTENNA__173__A1
*860 ANTENNA__175__A0
*861 ANTENNA__175__A1
*862 ANTENNA__178__B
*863 ANTENNA__179__A1
*864 ANTENNA__181__A0
*865 ANTENNA__181__S
*866 ANTENNA__183__S
*867 ANTENNA__185__C
*868 ANTENNA__186__S
*869 ANTENNA__188__A0
*870 ANTENNA__188__A1
*871 ANTENNA__234__A
*872 ANTENNA__243__A0
*873 ANTENNA__246__A0
*874 ANTENNA__249__A0
*875 ANTENNA__260__A0
*876 ANTENNA__284__A1
*877 ANTENNA__287__A1
*878 ANTENNA__291__A1
*879 ANTENNA__301__A1
*880 ANTENNA__314__A0
*881 ANTENNA_clkbuf_0_wb_clk_i_A
*882 ANTENNA_input10_A
*883 ANTENNA_input11_A
*884 ANTENNA_input12_A
*885 ANTENNA_input13_A
*886 ANTENNA_input14_A
*887 ANTENNA_input15_A
*888 ANTENNA_input16_A
*889 ANTENNA_input17_A
*890 ANTENNA_input18_A
*891 ANTENNA_input19_A
*892 ANTENNA_input1_A
*893 ANTENNA_input20_A
*894 ANTENNA_input21_A
*895 ANTENNA_input2_A
*896 ANTENNA_input3_A
*897 ANTENNA_input4_A
*898 ANTENNA_input5_A
*899 ANTENNA_input6_A
*900 ANTENNA_input7_A
*901 ANTENNA_input8_A
*902 ANTENNA_input9_A
*903 ANTENNA_output26_A
*904 ANTENNA_output27_A
*905 ANTENNA_output28_A
*906 ANTENNA_output30_A
*907 ANTENNA_output31_A
*908 ANTENNA_output32_A
*909 ANTENNA_output46_A
*910 FILLER_0_100
*911 FILLER_0_108
*912 FILLER_0_129
*913 FILLER_0_136
*914 FILLER_0_15
*915 FILLER_0_157
*916 FILLER_0_164
*917 FILLER_0_173
*918 FILLER_0_18
*919 FILLER_0_181
*920 FILLER_0_189
*921 FILLER_0_195
*922 FILLER_0_199
*923 FILLER_0_206
*924 FILLER_0_213
*925 FILLER_0_220
*926 FILLER_0_227
*927 FILLER_0_234
*928 FILLER_0_24
*929 FILLER_0_241
*930 FILLER_0_248
*931 FILLER_0_255
*932 FILLER_0_262
*933 FILLER_0_269
*934 FILLER_0_276
*935 FILLER_0_283
*936 FILLER_0_29
*937 FILLER_0_290
*938 FILLER_0_297
*939 FILLER_0_3
*940 FILLER_0_304
*941 FILLER_0_309
*942 FILLER_0_318
*943 FILLER_0_325
*944 FILLER_0_33
*945 FILLER_0_332
*946 FILLER_0_337
*947 FILLER_0_344
*948 FILLER_0_352
*949 FILLER_0_360
*950 FILLER_0_368
*951 FILLER_0_376
*952 FILLER_0_384
*953 FILLER_0_397
*954 FILLER_0_404
*955 FILLER_0_411
*956 FILLER_0_419
*957 FILLER_0_42
*958 FILLER_0_424
*959 FILLER_0_431
*960 FILLER_0_438
*961 FILLER_0_446
*962 FILLER_0_452
*963 FILLER_0_459
*964 FILLER_0_466
*965 FILLER_0_474
*966 FILLER_0_48
*967 FILLER_0_480
*968 FILLER_0_487
*969 FILLER_0_494
*970 FILLER_0_502
*971 FILLER_0_508
*972 FILLER_0_515
*973 FILLER_0_52
*974 FILLER_0_522
*975 FILLER_0_530
*976 FILLER_0_536
*977 FILLER_0_543
*978 FILLER_0_550
*979 FILLER_0_558
*980 FILLER_0_564
*981 FILLER_0_57
*982 FILLER_0_571
*983 FILLER_0_578
*984 FILLER_0_586
*985 FILLER_0_592
*986 FILLER_0_599
*987 FILLER_0_606
*988 FILLER_0_614
*989 FILLER_0_62
*990 FILLER_0_620
*991 FILLER_0_627
*992 FILLER_0_634
*993 FILLER_0_642
*994 FILLER_0_645
*995 FILLER_0_657
*996 FILLER_0_669
*997 FILLER_0_673
*998 FILLER_0_685
*999 FILLER_0_697
*1000 FILLER_0_701
*1001 FILLER_0_71
*1002 FILLER_0_713
*1003 FILLER_0_725
*1004 FILLER_0_729
*1005 FILLER_0_80
*1006 FILLER_0_90
*1007 FILLER_0_96
*1008 FILLER_100_109
*1009 FILLER_100_121
*1010 FILLER_100_133
*1011 FILLER_100_139
*1012 FILLER_100_144
*1013 FILLER_100_15
*1014 FILLER_100_156
*1015 FILLER_100_168
*1016 FILLER_100_180
*1017 FILLER_100_192
*1018 FILLER_100_197
*1019 FILLER_100_209
*1020 FILLER_100_221
*1021 FILLER_100_233
*1022 FILLER_100_245
*1023 FILLER_100_251
*1024 FILLER_100_253
*1025 FILLER_100_265
*1026 FILLER_100_27
*1027 FILLER_100_277
*1028 FILLER_100_289
*1029 FILLER_100_29
*1030 FILLER_100_3
*1031 FILLER_100_301
*1032 FILLER_100_307
*1033 FILLER_100_309
*1034 FILLER_100_321
*1035 FILLER_100_333
*1036 FILLER_100_345
*1037 FILLER_100_357
*1038 FILLER_100_363
*1039 FILLER_100_365
*1040 FILLER_100_377
*1041 FILLER_100_389
*1042 FILLER_100_401
*1043 FILLER_100_41
*1044 FILLER_100_413
*1045 FILLER_100_419
*1046 FILLER_100_421
*1047 FILLER_100_433
*1048 FILLER_100_445
*1049 FILLER_100_457
*1050 FILLER_100_469
*1051 FILLER_100_475
*1052 FILLER_100_477
*1053 FILLER_100_489
*1054 FILLER_100_501
*1055 FILLER_100_513
*1056 FILLER_100_525
*1057 FILLER_100_53
*1058 FILLER_100_531
*1059 FILLER_100_533
*1060 FILLER_100_545
*1061 FILLER_100_557
*1062 FILLER_100_569
*1063 FILLER_100_577
*1064 FILLER_100_582
*1065 FILLER_100_589
*1066 FILLER_100_601
*1067 FILLER_100_613
*1068 FILLER_100_625
*1069 FILLER_100_637
*1070 FILLER_100_643
*1071 FILLER_100_645
*1072 FILLER_100_65
*1073 FILLER_100_657
*1074 FILLER_100_669
*1075 FILLER_100_681
*1076 FILLER_100_693
*1077 FILLER_100_699
*1078 FILLER_100_701
*1079 FILLER_100_713
*1080 FILLER_100_725
*1081 FILLER_100_77
*1082 FILLER_100_83
*1083 FILLER_100_85
*1084 FILLER_100_97
*1085 FILLER_101_104
*1086 FILLER_101_108
*1087 FILLER_101_116
*1088 FILLER_101_125
*1089 FILLER_101_132
*1090 FILLER_101_141
*1091 FILLER_101_15
*1092 FILLER_101_150
*1093 FILLER_101_157
*1094 FILLER_101_164
*1095 FILLER_101_169
*1096 FILLER_101_178
*1097 FILLER_101_185
*1098 FILLER_101_192
*1099 FILLER_101_197
*1100 FILLER_101_204
*1101 FILLER_101_213
*1102 FILLER_101_220
*1103 FILLER_101_225
*1104 FILLER_101_229
*1105 FILLER_101_233
*1106 FILLER_101_240
*1107 FILLER_101_244
*1108 FILLER_101_248
*1109 FILLER_101_253
*1110 FILLER_101_258
*1111 FILLER_101_269
*1112 FILLER_101_27
*1113 FILLER_101_276
*1114 FILLER_101_281
*1115 FILLER_101_287
*1116 FILLER_101_29
*1117 FILLER_101_294
*1118 FILLER_101_3
*1119 FILLER_101_300
*1120 FILLER_101_304
*1121 FILLER_101_312
*1122 FILLER_101_323
*1123 FILLER_101_330
*1124 FILLER_101_337
*1125 FILLER_101_341
*1126 FILLER_101_348
*1127 FILLER_101_35
*1128 FILLER_101_356
*1129 FILLER_101_360
*1130 FILLER_101_368
*1131 FILLER_101_377
*1132 FILLER_101_384
*1133 FILLER_101_396
*1134 FILLER_101_403
*1135 FILLER_101_414
*1136 FILLER_101_42
*1137 FILLER_101_424
*1138 FILLER_101_428
*1139 FILLER_101_432
*1140 FILLER_101_439
*1141 FILLER_101_447
*1142 FILLER_101_452
*1143 FILLER_101_459
*1144 FILLER_101_468
*1145 FILLER_101_48
*1146 FILLER_101_480
*1147 FILLER_101_487
*1148 FILLER_101_494
*1149 FILLER_101_502
*1150 FILLER_101_508
*1151 FILLER_101_515
*1152 FILLER_101_52
*1153 FILLER_101_522
*1154 FILLER_101_530
*1155 FILLER_101_536
*1156 FILLER_101_543
*1157 FILLER_101_550
*1158 FILLER_101_558
*1159 FILLER_101_564
*1160 FILLER_101_571
*1161 FILLER_101_578
*1162 FILLER_101_586
*1163 FILLER_101_589
*1164 FILLER_101_594
*1165 FILLER_101_60
*1166 FILLER_101_601
*1167 FILLER_101_612
*1168 FILLER_101_620
*1169 FILLER_101_626
*1170 FILLER_101_630
*1171 FILLER_101_637
*1172 FILLER_101_643
*1173 FILLER_101_648
*1174 FILLER_101_655
*1175 FILLER_101_666
*1176 FILLER_101_676
*1177 FILLER_101_680
*1178 FILLER_101_684
*1179 FILLER_101_691
*1180 FILLER_101_699
*1181 FILLER_101_704
*1182 FILLER_101_71
*1183 FILLER_101_711
*1184 FILLER_101_718
*1185 FILLER_101_726
*1186 FILLER_101_729
*1187 FILLER_101_78
*1188 FILLER_101_85
*1189 FILLER_101_89
*1190 FILLER_101_96
*1191 FILLER_10_121
*1192 FILLER_10_133
*1193 FILLER_10_139
*1194 FILLER_10_141
*1195 FILLER_10_147
*1196 FILLER_10_15
*1197 FILLER_10_168
*1198 FILLER_10_192
*1199 FILLER_10_197
*1200 FILLER_10_205
*1201 FILLER_10_209
*1202 FILLER_10_217
*1203 FILLER_10_223
*1204 FILLER_10_229
*1205 FILLER_10_235
*1206 FILLER_10_248
*1207 FILLER_10_265
*1208 FILLER_10_27
*1209 FILLER_10_271
*1210 FILLER_10_277
*1211 FILLER_10_284
*1212 FILLER_10_29
*1213 FILLER_10_296
*1214 FILLER_10_3
*1215 FILLER_10_301
*1216 FILLER_10_307
*1217 FILLER_10_309
*1218 FILLER_10_321
*1219 FILLER_10_333
*1220 FILLER_10_345
*1221 FILLER_10_357
*1222 FILLER_10_363
*1223 FILLER_10_365
*1224 FILLER_10_377
*1225 FILLER_10_389
*1226 FILLER_10_401
*1227 FILLER_10_413
*1228 FILLER_10_419
*1229 FILLER_10_421
*1230 FILLER_10_433
*1231 FILLER_10_445
*1232 FILLER_10_45
*1233 FILLER_10_457
*1234 FILLER_10_469
*1235 FILLER_10_475
*1236 FILLER_10_477
*1237 FILLER_10_489
*1238 FILLER_10_501
*1239 FILLER_10_513
*1240 FILLER_10_525
*1241 FILLER_10_531
*1242 FILLER_10_533
*1243 FILLER_10_545
*1244 FILLER_10_557
*1245 FILLER_10_569
*1246 FILLER_10_58
*1247 FILLER_10_581
*1248 FILLER_10_587
*1249 FILLER_10_589
*1250 FILLER_10_601
*1251 FILLER_10_613
*1252 FILLER_10_625
*1253 FILLER_10_637
*1254 FILLER_10_643
*1255 FILLER_10_645
*1256 FILLER_10_657
*1257 FILLER_10_669
*1258 FILLER_10_67
*1259 FILLER_10_681
*1260 FILLER_10_693
*1261 FILLER_10_699
*1262 FILLER_10_701
*1263 FILLER_10_713
*1264 FILLER_10_725
*1265 FILLER_10_73
*1266 FILLER_10_79
*1267 FILLER_10_83
*1268 FILLER_10_90
*1269 FILLER_10_97
*1270 FILLER_11_101
*1271 FILLER_11_107
*1272 FILLER_11_111
*1273 FILLER_11_113
*1274 FILLER_11_130
*1275 FILLER_11_15
*1276 FILLER_11_150
*1277 FILLER_11_162
*1278 FILLER_11_169
*1279 FILLER_11_181
*1280 FILLER_11_202
*1281 FILLER_11_210
*1282 FILLER_11_215
*1283 FILLER_11_223
*1284 FILLER_11_23
*1285 FILLER_11_232
*1286 FILLER_11_244
*1287 FILLER_11_256
*1288 FILLER_11_268
*1289 FILLER_11_273
*1290 FILLER_11_279
*1291 FILLER_11_288
*1292 FILLER_11_29
*1293 FILLER_11_3
*1294 FILLER_11_304
*1295 FILLER_11_316
*1296 FILLER_11_328
*1297 FILLER_11_337
*1298 FILLER_11_349
*1299 FILLER_11_361
*1300 FILLER_11_373
*1301 FILLER_11_38
*1302 FILLER_11_385
*1303 FILLER_11_391
*1304 FILLER_11_393
*1305 FILLER_11_405
*1306 FILLER_11_417
*1307 FILLER_11_429
*1308 FILLER_11_441
*1309 FILLER_11_447
*1310 FILLER_11_449
*1311 FILLER_11_45
*1312 FILLER_11_461
*1313 FILLER_11_473
*1314 FILLER_11_485
*1315 FILLER_11_497
*1316 FILLER_11_503
*1317 FILLER_11_505
*1318 FILLER_11_517
*1319 FILLER_11_52
*1320 FILLER_11_529
*1321 FILLER_11_541
*1322 FILLER_11_553
*1323 FILLER_11_559
*1324 FILLER_11_561
*1325 FILLER_11_57
*1326 FILLER_11_573
*1327 FILLER_11_585
*1328 FILLER_11_597
*1329 FILLER_11_609
*1330 FILLER_11_61
*1331 FILLER_11_615
*1332 FILLER_11_617
*1333 FILLER_11_629
*1334 FILLER_11_641
*1335 FILLER_11_653
*1336 FILLER_11_665
*1337 FILLER_11_671
*1338 FILLER_11_673
*1339 FILLER_11_685
*1340 FILLER_11_697
*1341 FILLER_11_709
*1342 FILLER_11_71
*1343 FILLER_11_721
*1344 FILLER_11_727
*1345 FILLER_11_729
*1346 FILLER_11_78
*1347 FILLER_11_84
*1348 FILLER_11_94
*1349 FILLER_12_110
*1350 FILLER_12_130
*1351 FILLER_12_138
*1352 FILLER_12_141
*1353 FILLER_12_15
*1354 FILLER_12_153
*1355 FILLER_12_174
*1356 FILLER_12_186
*1357 FILLER_12_194
*1358 FILLER_12_197
*1359 FILLER_12_209
*1360 FILLER_12_227
*1361 FILLER_12_238
*1362 FILLER_12_250
*1363 FILLER_12_257
*1364 FILLER_12_263
*1365 FILLER_12_267
*1366 FILLER_12_27
*1367 FILLER_12_279
*1368 FILLER_12_29
*1369 FILLER_12_291
*1370 FILLER_12_3
*1371 FILLER_12_303
*1372 FILLER_12_307
*1373 FILLER_12_309
*1374 FILLER_12_321
*1375 FILLER_12_33
*1376 FILLER_12_333
*1377 FILLER_12_345
*1378 FILLER_12_357
*1379 FILLER_12_363
*1380 FILLER_12_365
*1381 FILLER_12_377
*1382 FILLER_12_389
*1383 FILLER_12_401
*1384 FILLER_12_41
*1385 FILLER_12_413
*1386 FILLER_12_419
*1387 FILLER_12_421
*1388 FILLER_12_433
*1389 FILLER_12_445
*1390 FILLER_12_457
*1391 FILLER_12_469
*1392 FILLER_12_475
*1393 FILLER_12_477
*1394 FILLER_12_48
*1395 FILLER_12_489
*1396 FILLER_12_501
*1397 FILLER_12_513
*1398 FILLER_12_525
*1399 FILLER_12_531
*1400 FILLER_12_533
*1401 FILLER_12_545
*1402 FILLER_12_557
*1403 FILLER_12_56
*1404 FILLER_12_569
*1405 FILLER_12_581
*1406 FILLER_12_587
*1407 FILLER_12_589
*1408 FILLER_12_601
*1409 FILLER_12_613
*1410 FILLER_12_62
*1411 FILLER_12_625
*1412 FILLER_12_637
*1413 FILLER_12_643
*1414 FILLER_12_645
*1415 FILLER_12_657
*1416 FILLER_12_669
*1417 FILLER_12_68
*1418 FILLER_12_681
*1419 FILLER_12_693
*1420 FILLER_12_699
*1421 FILLER_12_701
*1422 FILLER_12_713
*1423 FILLER_12_725
*1424 FILLER_12_74
*1425 FILLER_12_82
*1426 FILLER_12_85
*1427 FILLER_12_93
*1428 FILLER_13_105
*1429 FILLER_13_111
*1430 FILLER_13_113
*1431 FILLER_13_125
*1432 FILLER_13_145
*1433 FILLER_13_15
*1434 FILLER_13_157
*1435 FILLER_13_165
*1436 FILLER_13_169
*1437 FILLER_13_181
*1438 FILLER_13_205
*1439 FILLER_13_213
*1440 FILLER_13_219
*1441 FILLER_13_223
*1442 FILLER_13_235
*1443 FILLER_13_241
*1444 FILLER_13_249
*1445 FILLER_13_257
*1446 FILLER_13_263
*1447 FILLER_13_27
*1448 FILLER_13_276
*1449 FILLER_13_289
*1450 FILLER_13_3
*1451 FILLER_13_301
*1452 FILLER_13_313
*1453 FILLER_13_325
*1454 FILLER_13_333
*1455 FILLER_13_337
*1456 FILLER_13_349
*1457 FILLER_13_361
*1458 FILLER_13_373
*1459 FILLER_13_385
*1460 FILLER_13_39
*1461 FILLER_13_391
*1462 FILLER_13_393
*1463 FILLER_13_405
*1464 FILLER_13_417
*1465 FILLER_13_429
*1466 FILLER_13_441
*1467 FILLER_13_447
*1468 FILLER_13_449
*1469 FILLER_13_461
*1470 FILLER_13_473
*1471 FILLER_13_485
*1472 FILLER_13_497
*1473 FILLER_13_503
*1474 FILLER_13_505
*1475 FILLER_13_51
*1476 FILLER_13_517
*1477 FILLER_13_529
*1478 FILLER_13_541
*1479 FILLER_13_55
*1480 FILLER_13_553
*1481 FILLER_13_559
*1482 FILLER_13_561
*1483 FILLER_13_573
*1484 FILLER_13_585
*1485 FILLER_13_597
*1486 FILLER_13_609
*1487 FILLER_13_615
*1488 FILLER_13_617
*1489 FILLER_13_629
*1490 FILLER_13_641
*1491 FILLER_13_653
*1492 FILLER_13_66
*1493 FILLER_13_665
*1494 FILLER_13_671
*1495 FILLER_13_673
*1496 FILLER_13_685
*1497 FILLER_13_697
*1498 FILLER_13_709
*1499 FILLER_13_721
*1500 FILLER_13_727
*1501 FILLER_13_729
*1502 FILLER_13_83
*1503 FILLER_13_89
*1504 FILLER_13_93
*1505 FILLER_14_100
*1506 FILLER_14_117
*1507 FILLER_14_129
*1508 FILLER_14_137
*1509 FILLER_14_141
*1510 FILLER_14_15
*1511 FILLER_14_158
*1512 FILLER_14_170
*1513 FILLER_14_192
*1514 FILLER_14_197
*1515 FILLER_14_209
*1516 FILLER_14_215
*1517 FILLER_14_229
*1518 FILLER_14_237
*1519 FILLER_14_248
*1520 FILLER_14_253
*1521 FILLER_14_265
*1522 FILLER_14_27
*1523 FILLER_14_277
*1524 FILLER_14_285
*1525 FILLER_14_29
*1526 FILLER_14_290
*1527 FILLER_14_3
*1528 FILLER_14_302
*1529 FILLER_14_309
*1530 FILLER_14_321
*1531 FILLER_14_333
*1532 FILLER_14_345
*1533 FILLER_14_357
*1534 FILLER_14_363
*1535 FILLER_14_365
*1536 FILLER_14_377
*1537 FILLER_14_389
*1538 FILLER_14_401
*1539 FILLER_14_41
*1540 FILLER_14_413
*1541 FILLER_14_419
*1542 FILLER_14_421
*1543 FILLER_14_433
*1544 FILLER_14_445
*1545 FILLER_14_457
*1546 FILLER_14_469
*1547 FILLER_14_475
*1548 FILLER_14_477
*1549 FILLER_14_48
*1550 FILLER_14_489
*1551 FILLER_14_501
*1552 FILLER_14_513
*1553 FILLER_14_525
*1554 FILLER_14_531
*1555 FILLER_14_533
*1556 FILLER_14_545
*1557 FILLER_14_557
*1558 FILLER_14_56
*1559 FILLER_14_569
*1560 FILLER_14_581
*1561 FILLER_14_587
*1562 FILLER_14_589
*1563 FILLER_14_601
*1564 FILLER_14_613
*1565 FILLER_14_625
*1566 FILLER_14_63
*1567 FILLER_14_637
*1568 FILLER_14_643
*1569 FILLER_14_645
*1570 FILLER_14_657
*1571 FILLER_14_669
*1572 FILLER_14_681
*1573 FILLER_14_69
*1574 FILLER_14_693
*1575 FILLER_14_699
*1576 FILLER_14_701
*1577 FILLER_14_713
*1578 FILLER_14_725
*1579 FILLER_14_73
*1580 FILLER_14_80
*1581 FILLER_14_94
*1582 FILLER_15_100
*1583 FILLER_15_113
*1584 FILLER_15_133
*1585 FILLER_15_145
*1586 FILLER_15_15
*1587 FILLER_15_164
*1588 FILLER_15_169
*1589 FILLER_15_201
*1590 FILLER_15_213
*1591 FILLER_15_221
*1592 FILLER_15_225
*1593 FILLER_15_237
*1594 FILLER_15_246
*1595 FILLER_15_254
*1596 FILLER_15_27
*1597 FILLER_15_276
*1598 FILLER_15_288
*1599 FILLER_15_3
*1600 FILLER_15_300
*1601 FILLER_15_312
*1602 FILLER_15_324
*1603 FILLER_15_337
*1604 FILLER_15_349
*1605 FILLER_15_361
*1606 FILLER_15_373
*1607 FILLER_15_385
*1608 FILLER_15_39
*1609 FILLER_15_391
*1610 FILLER_15_393
*1611 FILLER_15_405
*1612 FILLER_15_417
*1613 FILLER_15_429
*1614 FILLER_15_441
*1615 FILLER_15_447
*1616 FILLER_15_449
*1617 FILLER_15_461
*1618 FILLER_15_473
*1619 FILLER_15_485
*1620 FILLER_15_497
*1621 FILLER_15_503
*1622 FILLER_15_505
*1623 FILLER_15_51
*1624 FILLER_15_517
*1625 FILLER_15_529
*1626 FILLER_15_541
*1627 FILLER_15_55
*1628 FILLER_15_553
*1629 FILLER_15_559
*1630 FILLER_15_561
*1631 FILLER_15_573
*1632 FILLER_15_585
*1633 FILLER_15_597
*1634 FILLER_15_60
*1635 FILLER_15_609
*1636 FILLER_15_615
*1637 FILLER_15_617
*1638 FILLER_15_629
*1639 FILLER_15_641
*1640 FILLER_15_653
*1641 FILLER_15_66
*1642 FILLER_15_665
*1643 FILLER_15_671
*1644 FILLER_15_673
*1645 FILLER_15_685
*1646 FILLER_15_697
*1647 FILLER_15_709
*1648 FILLER_15_721
*1649 FILLER_15_727
*1650 FILLER_15_729
*1651 FILLER_15_76
*1652 FILLER_15_88
*1653 FILLER_16_109
*1654 FILLER_16_121
*1655 FILLER_16_133
*1656 FILLER_16_139
*1657 FILLER_16_141
*1658 FILLER_16_15
*1659 FILLER_16_153
*1660 FILLER_16_165
*1661 FILLER_16_177
*1662 FILLER_16_189
*1663 FILLER_16_195
*1664 FILLER_16_197
*1665 FILLER_16_209
*1666 FILLER_16_218
*1667 FILLER_16_230
*1668 FILLER_16_242
*1669 FILLER_16_250
*1670 FILLER_16_253
*1671 FILLER_16_261
*1672 FILLER_16_27
*1673 FILLER_16_275
*1674 FILLER_16_287
*1675 FILLER_16_29
*1676 FILLER_16_299
*1677 FILLER_16_3
*1678 FILLER_16_307
*1679 FILLER_16_309
*1680 FILLER_16_321
*1681 FILLER_16_333
*1682 FILLER_16_345
*1683 FILLER_16_357
*1684 FILLER_16_363
*1685 FILLER_16_365
*1686 FILLER_16_377
*1687 FILLER_16_389
*1688 FILLER_16_401
*1689 FILLER_16_41
*1690 FILLER_16_413
*1691 FILLER_16_419
*1692 FILLER_16_421