*SPEF "ieee 1481-1999"
*DESIGN "rlbp"
*DATE "11:11:11 Fri 11 11, 1111"
*VENDOR "OpenRCX"
*PROGRAM "Parallel Extraction"
*VERSION "1.0"
*DESIGN_FLOW "NAME_SCOPE LOCAL" "PIN_CAP NONE"
*DIVIDER /
*DELIMITER :
*BUS_DELIMITER []
*T_UNIT 1 NS
*C_UNIT 1 PF
*R_UNIT 1 OHM
*L_UNIT 1 HENRY

*NAME_MAP
*1 ce_d1
*2 ce_d2
*3 ce_d3
*4 clk
*5 control_signals[0]
*6 control_signals[1]
*7 d[0]
*8 d[1]
*9 d[2]
*10 d[3]
*11 data_in
*12 data_out[0]
*13 data_out[1]
*14 data_out[2]
*15 net25
*16 data_sel[0]
*17 data_sel[1]
*18 gpio_start
*19 logic_analyzer_start
*20 q1_1
*21 q1_2
*22 q1_3
*23 q2_1
*24 q2_2
*25 q2_3
*26 q3_1
*27 q3_2
*28 q3_3
*29 reset
*30 reset_fsm
*31 rlbp_done
*34 _000_
*35 _001_
*36 _002_
*37 _003_
*38 _004_
*39 _005_
*40 _006_
*41 _007_
*42 _008_
*43 _009_
*44 _010_
*45 _011_
*46 _012_
*47 _013_
*48 _014_
*49 _015_
*50 _016_
*51 _017_
*52 _018_
*53 _019_
*54 _020_
*55 _021_
*56 _022_
*57 _023_
*58 _024_
*59 _025_
*60 _026_
*61 _027_
*62 _028_
*63 _029_
*64 _030_
*65 _031_
*66 _032_
*67 _033_
*68 _034_
*69 _035_
*70 _036_
*71 _037_
*72 _038_
*73 _039_
*74 _040_
*75 _041_
*76 _042_
*77 _043_
*78 _044_
*79 _045_
*80 _046_
*81 _047_
*82 _048_
*83 _049_
*84 _050_
*85 _051_
*86 _052_
*87 _053_
*88 _054_
*89 _055_
*90 _056_
*91 _057_
*92 _058_
*93 _059_
*94 _060_
*95 _061_
*96 _062_
*97 _063_
*98 _064_
*99 _065_
*100 _066_
*101 _067_
*102 _068_
*103 _069_
*104 _070_
*105 clknet_0_clk
*106 clknet_1_0__leaf_clk
*107 clknet_1_1__leaf_clk
*108 inst1\.next_state_rlbp\[0\]
*109 inst1\.next_state_rlbp\[1\]
*110 inst1\.next_state_rlbp\[2\]
*111 inst1\.next_state_rlbp\[3\]
*112 inst1\.state_rlbp\[0\]
*113 inst1\.state_rlbp\[1\]
*114 inst1\.state_rlbp\[2\]
*115 inst1\.state_rlbp\[3\]
*116 net1
*117 net10
*118 net11
*119 net12
*120 net13
*121 net14
*122 net15
*123 net16
*124 net17
*125 net18
*126 net19
*127 net2
*128 net20
*129 net21
*130 net22
*131 net23
*132 net24
*133 net3
*134 net4
*135 net5
*136 net6
*137 net7
*138 net8
*139 net9
*140 ANTENNA__073__S
*141 ANTENNA__075__S
*142 ANTENNA__077__S
*143 ANTENNA__081__A
*144 ANTENNA__081__B_N
*145 ANTENNA__082__A1
*146 ANTENNA__082__S
*147 ANTENNA__084__A0
*148 ANTENNA__084__S
*149 ANTENNA__086__S
*150 ANTENNA__088__A
*151 ANTENNA__088__B
*152 ANTENNA__088__C_N
*153 ANTENNA__089__A0
*154 ANTENNA__133__A
*155 ANTENNA__134__A
*156 ANTENNA__135__A
*157 ANTENNA__136__A
*158 ANTENNA__137__A
*159 ANTENNA__138__A
*160 ANTENNA__139__A
*161 ANTENNA__145__A
*162 ANTENNA__146__A
*163 ANTENNA__147__A
*164 ANTENNA__150__CLK
*165 ANTENNA__151__CLK
*166 ANTENNA__152__CLK
*167 ANTENNA__153__CLK
*168 ANTENNA__156__CLK
*169 ANTENNA__157__CLK
*170 ANTENNA__158__CLK
*171 ANTENNA__159__CLK
*172 ANTENNA_clkbuf_0_clk_A
*173 ANTENNA_input1_A
*174 ANTENNA_input2_A
*175 ANTENNA_input3_A
*176 ANTENNA_input4_A
*177 ANTENNA_input5_A
*178 ANTENNA_input6_A
*179 ANTENNA_input7_A
*180 ANTENNA_output12_A
*181 ANTENNA_output18_A
*182 FILLER_0_110
*183 FILLER_0_113
*184 FILLER_0_12
*185 FILLER_0_125
*186 FILLER_0_137
*187 FILLER_0_141
*188 FILLER_0_147
*189 FILLER_0_159
*190 FILLER_0_167
*191 FILLER_0_169
*192 FILLER_0_181
*193 FILLER_0_193
*194 FILLER_0_197
*195 FILLER_0_209
*196 FILLER_0_221
*197 FILLER_0_229
*198 FILLER_0_24
*199 FILLER_0_241
*200 FILLER_0_249
*201 FILLER_0_253
*202 FILLER_0_265
*203 FILLER_0_277
*204 FILLER_0_281
*205 FILLER_0_29
*206 FILLER_0_293
*207 FILLER_0_3
*208 FILLER_0_305
*209 FILLER_0_313
*210 FILLER_0_319
*211 FILLER_0_331
*212 FILLER_0_335
*213 FILLER_0_337
*214 FILLER_0_352
*215 FILLER_0_360
*216 FILLER_0_38
*217 FILLER_0_44
*218 FILLER_0_57
*219 FILLER_0_61
*220 FILLER_0_65
*221 FILLER_0_7
*222 FILLER_0_71
*223 FILLER_0_83
*224 FILLER_0_85
*225 FILLER_0_92
*226 FILLER_0_98
*227 FILLER_10_108
*228 FILLER_10_119
*229 FILLER_10_131
*230 FILLER_10_139
*231 FILLER_10_141
*232 FILLER_10_153
*233 FILLER_10_165
*234 FILLER_10_177
*235 FILLER_10_189
*236 FILLER_10_19
*237 FILLER_10_195
*238 FILLER_10_197
*239 FILLER_10_201
*240 FILLER_10_206
*241 FILLER_10_221
*242 FILLER_10_225
*243 FILLER_10_231
*244 FILLER_10_243
*245 FILLER_10_251
*246 FILLER_10_253
*247 FILLER_10_265
*248 FILLER_10_27
*249 FILLER_10_277
*250 FILLER_10_283
*251 FILLER_10_287
*252 FILLER_10_29
*253 FILLER_10_299
*254 FILLER_10_307
*255 FILLER_10_309
*256 FILLER_10_321
*257 FILLER_10_341
*258 FILLER_10_353
*259 FILLER_10_361
*260 FILLER_10_41
*261 FILLER_10_53
*262 FILLER_10_65
*263 FILLER_10_7
*264 FILLER_10_77
*265 FILLER_10_83
*266 FILLER_10_85
*267 FILLER_10_97
*268 FILLER_11_105
*269 FILLER_11_111
*270 FILLER_11_113
*271 FILLER_11_126
*272 FILLER_11_138
*273 FILLER_11_145
*274 FILLER_11_15
*275 FILLER_11_157
*276 FILLER_11_165
*277 FILLER_11_169
*278 FILLER_11_181
*279 FILLER_11_193
*280 FILLER_11_205
*281 FILLER_11_217
*282 FILLER_11_223
*283 FILLER_11_225
*284 FILLER_11_237
*285 FILLER_11_249
*286 FILLER_11_261
*287 FILLER_11_27
*288 FILLER_11_273
*289 FILLER_11_279
*290 FILLER_11_281
*291 FILLER_11_289
*292 FILLER_11_3
*293 FILLER_11_310
*294 FILLER_11_322
*295 FILLER_11_334
*296 FILLER_11_337
*297 FILLER_11_349
*298 FILLER_11_361
*299 FILLER_11_39
*300 FILLER_11_51
*301 FILLER_11_55
*302 FILLER_11_57
*303 FILLER_11_69
*304 FILLER_11_81
*305 FILLER_11_93
*306 FILLER_12_109
*307 FILLER_12_128
*308 FILLER_12_141
*309 FILLER_12_15
*310 FILLER_12_153
*311 FILLER_12_165
*312 FILLER_12_177
*313 FILLER_12_189
*314 FILLER_12_195
*315 FILLER_12_197
*316 FILLER_12_209
*317 FILLER_12_221
*318 FILLER_12_237
*319 FILLER_12_249
*320 FILLER_12_253
*321 FILLER_12_265
*322 FILLER_12_27
*323 FILLER_12_277
*324 FILLER_12_289
*325 FILLER_12_29
*326 FILLER_12_295
*327 FILLER_12_3
*328 FILLER_12_302
*329 FILLER_12_309
*330 FILLER_12_321
*331 FILLER_12_333
*332 FILLER_12_345
*333 FILLER_12_353
*334 FILLER_12_360
*335 FILLER_12_41
*336 FILLER_12_53
*337 FILLER_12_65
*338 FILLER_12_77
*339 FILLER_12_83
*340 FILLER_12_85
*341 FILLER_12_97
*342 FILLER_13_107
*343 FILLER_13_111
*344 FILLER_13_113
*345 FILLER_13_125
*346 FILLER_13_133
*347 FILLER_13_139
*348 FILLER_13_15
*349 FILLER_13_151
*350 FILLER_13_163
*351 FILLER_13_167
*352 FILLER_13_169
*353 FILLER_13_181
*354 FILLER_13_193
*355 FILLER_13_205
*356 FILLER_13_217
*357 FILLER_13_223
*358 FILLER_13_225
*359 FILLER_13_237
*360 FILLER_13_249
*361 FILLER_13_261
*362 FILLER_13_27
*363 FILLER_13_273
*364 FILLER_13_279
*365 FILLER_13_281
*366 FILLER_13_293
*367 FILLER_13_3
*368 FILLER_13_305
*369 FILLER_13_317
*370 FILLER_13_329
*371 FILLER_13_335
*372 FILLER_13_337
*373 FILLER_13_349
*374 FILLER_13_361
*375 FILLER_13_51
*376 FILLER_13_55
*377 FILLER_13_59
*378 FILLER_13_71
*379 FILLER_13_83
*380 FILLER_13_95
*381 FILLER_14_121
*382 FILLER_14_129
*383 FILLER_14_136
*384 FILLER_14_141
*385 FILLER_14_15
*386 FILLER_14_153
*387 FILLER_14_157
*388 FILLER_14_181
*389 FILLER_14_193
*390 FILLER_14_197
*391 FILLER_14_205
*392 FILLER_14_220
*393 FILLER_14_232
*394 FILLER_14_244
*395 FILLER_14_253
*396 FILLER_14_265
*397 FILLER_14_27
*398 FILLER_14_277
*399 FILLER_14_289
*400 FILLER_14_29
*401 FILLER_14_3
*402 FILLER_14_301
*403 FILLER_14_307
*404 FILLER_14_309
*405 FILLER_14_321
*406 FILLER_14_333
*407 FILLER_14_345
*408 FILLER_14_357
*409 FILLER_14_363
*410 FILLER_14_44
*411 FILLER_14_50
*412 FILLER_14_62
*413 FILLER_14_74
*414 FILLER_14_82
*415 FILLER_14_85
*416 FILLER_14_97
*417 FILLER_15_105
*418 FILLER_15_111
*419 FILLER_15_113
*420 FILLER_15_128
*421 FILLER_15_134
*422 FILLER_15_146
*423 FILLER_15_15
*424 FILLER_15_158
*425 FILLER_15_166
*426 FILLER_15_169
*427 FILLER_15_181
*428 FILLER_15_185
*429 FILLER_15_206
*430 FILLER_15_218
*431 FILLER_15_225
*432 FILLER_15_237
*433 FILLER_15_249
*434 FILLER_15_261
*435 FILLER_15_27
*436 FILLER_15_273
*437 FILLER_15_279
*438 FILLER_15_281
*439 FILLER_15_289
*440 FILLER_15_3
*441 FILLER_15_312
*442 FILLER_15_32
*443 FILLER_15_324
*444 FILLER_15_337
*445 FILLER_15_349
*446 FILLER_15_361
*447 FILLER_15_40
*448 FILLER_15_52
*449 FILLER_15_57
*450 FILLER_15_69
*451 FILLER_15_81
*452 FILLER_15_93
*453 FILLER_16_111
*454 FILLER_16_136
*455 FILLER_16_141
*456 FILLER_16_15
*457 FILLER_16_153
*458 FILLER_16_165
*459 FILLER_16_177
*460 FILLER_16_189
*461 FILLER_16_195
*462 FILLER_16_197
*463 FILLER_16_211
*464 FILLER_16_223
*465 FILLER_16_235
*466 FILLER_16_247
*467 FILLER_16_251
*468 FILLER_16_253
*469 FILLER_16_265
*470 FILLER_16_27
*471 FILLER_16_277
*472 FILLER_16_289
*473 FILLER_16_29
*474 FILLER_16_293
*475 FILLER_16_3
*476 FILLER_16_300
*477 FILLER_16_309
*478 FILLER_16_314
*479 FILLER_16_318
*480 FILLER_16_321
*481 FILLER_16_334
*482 FILLER_16_346
*483 FILLER_16_358
*484 FILLER_16_41
*485 FILLER_16_55
*486 FILLER_16_67
*487 FILLER_16_79
*488 FILLER_16_83
*489 FILLER_16_85
*490 FILLER_16_97
*491 FILLER_17_100
*492 FILLER_17_113
*493 FILLER_17_125
*494 FILLER_17_137
*495 FILLER_17_149
*496 FILLER_17_15
*497 FILLER_17_161
*498 FILLER_17_167
*499 FILLER_17_169
*500 FILLER_17_181
*501 FILLER_17_193
*502 FILLER_17_205
*503 FILLER_17_213
*504 FILLER_17_221
*505 FILLER_17_225
*506 FILLER_17_237
*507 FILLER_17_249
*508 FILLER_17_261
*509 FILLER_17_27
*510 FILLER_17_273
*511 FILLER_17_279
*512 FILLER_17_281
*513 FILLER_17_293
*514 FILLER_17_3
*515 FILLER_17_305
*516 FILLER_17_317
*517 FILLER_17_329
*518 FILLER_17_335
*519 FILLER_17_337
*520 FILLER_17_349
*521 FILLER_17_355
*522 FILLER_17_360
*523 FILLER_17_39
*524 FILLER_17_47
*525 FILLER_17_52
*526 FILLER_17_64
*527 FILLER_17_76
*528 FILLER_17_88
*529 FILLER_18_109
*530 FILLER_18_121
*531 FILLER_18_133
*532 FILLER_18_139
*533 FILLER_18_141
*534 FILLER_18_153
*535 FILLER_18_165
*536 FILLER_18_17
*537 FILLER_18_177
*538 FILLER_18_189
*539 FILLER_18_195
*540 FILLER_18_197
*541 FILLER_18_205
*542 FILLER_18_209
*543 FILLER_18_222
*544 FILLER_18_234
*545 FILLER_18_246
*546 FILLER_18_25
*547 FILLER_18_253
*548 FILLER_18_265
*549 FILLER_18_277
*550 FILLER_18_289
*551 FILLER_18_29
*552 FILLER_18_301
*553 FILLER_18_307
*554 FILLER_18_309
*555 FILLER_18_321
*556 FILLER_18_333
*557 FILLER_18_345
*558 FILLER_18_357
*559 FILLER_18_363
*560 FILLER_18_41
*561 FILLER_18_5
*562 FILLER_18_55
*563 FILLER_18_63
*564 FILLER_18_75
*565 FILLER_18_83
*566 FILLER_18_85
*567 FILLER_18_97
*568 FILLER_19_108
*569 FILLER_19_113
*570 FILLER_19_125
*571 FILLER_19_129
*572 FILLER_19_13
*573 FILLER_19_154
*574 FILLER_19_166
*575 FILLER_19_169
*576 FILLER_19_181
*577 FILLER_19_193
*578 FILLER_19_204
*579 FILLER_19_212
*580 FILLER_19_220
*581 FILLER_19_227
*582 FILLER_19_239
*583 FILLER_19_25
*584 FILLER_19_251
*585 FILLER_19_263
*586 FILLER_19_275
*587 FILLER_19_279
*588 FILLER_19_281
*589 FILLER_19_293
*590 FILLER_19_300
*591 FILLER_19_306
*592 FILLER_19_318
*593 FILLER_19_330
*594 FILLER_19_337
*595 FILLER_19_349
*596 FILLER_19_361
*597 FILLER_19_37
*598 FILLER_19_49
*599 FILLER_19_55
*600 FILLER_19_60
*601 FILLER_19_72
*602 FILLER_19_84
*603 FILLER_19_96
*604 FILLER_1_105
*605 FILLER_1_111
*606 FILLER_1_113
*607 FILLER_1_119
*608 FILLER_1_125
*609 FILLER_1_137
*610 FILLER_1_149
*611 FILLER_1_161
*612 FILLER_1_167
*613 FILLER_1_169
*614 FILLER_1_181
*615 FILLER_1_193
*616 FILLER_1_20
*617 FILLER_1_205
*618 FILLER_1_217
*619 FILLER_1_223
*620 FILLER_1_225
*621 FILLER_1_237
*622 FILLER_1_247
*623 FILLER_1_259
*624 FILLER_1_271
*625 FILLER_1_279
*626 FILLER_1_281
*627 FILLER_1_293
*628 FILLER_1_3
*629 FILLER_1_305
*630 FILLER_1_317
*631 FILLER_1_32
*632 FILLER_1_321
*633 FILLER_1_325
*634 FILLER_1_333
*635 FILLER_1_337
*636 FILLER_1_349
*637 FILLER_1_361
*638 FILLER_1_44
*639 FILLER_1_57
*640 FILLER_1_69
*641 FILLER_1_8
*642 FILLER_1_81
*643 FILLER_1_93
*644 FILLER_20_109
*645 FILLER_20_121
*646 FILLER_20_133
*647 FILLER_20_139
*648 FILLER_20_144
*649 FILLER_20_15
*650 FILLER_20_156
*651 FILLER_20_168
*652 FILLER_20_180
*653 FILLER_20_192
*654 FILLER_20_197
*655 FILLER_20_205
*656 FILLER_20_209
*657 FILLER_20_215
*658 FILLER_20_226
*659 FILLER_20_232
*660 FILLER_20_244
*661 FILLER_20_253
*662 FILLER_20_265
*663 FILLER_20_27
*664 FILLER_20_277
*665 FILLER_20_289
*666 FILLER_20_29
*667 FILLER_20_3
*668 FILLER_20_301
*669 FILLER_20_307
*670 FILLER_20_309
*671 FILLER_20_314
*672 FILLER_20_318
*673 FILLER_20_321
*674 FILLER_20_334
*675 FILLER_20_346
*676 FILLER_20_358
*677 FILLER_20_53
*678 FILLER_20_59
*679 FILLER_20_71
*680 FILLER_20_83
*681 FILLER_20_85
*682 FILLER_20_97
*683 FILLER_21_100
*684 FILLER_21_113
*685 FILLER_21_125
*686 FILLER_21_137
*687 FILLER_21_149
*688 FILLER_21_15
*689 FILLER_21_161
*690 FILLER_21_167
*691 FILLER_21_169
*692 FILLER_21_181
*693 FILLER_21_193
*694 FILLER_21_205
*695 FILLER_21_217
*696 FILLER_21_223
*697 FILLER_21_225
*698 FILLER_21_237
*699 FILLER_21_249
*700 FILLER_21_261
*701 FILLER_21_27
*702 FILLER_21_273
*703 FILLER_21_279
*704 FILLER_21_281
*705 FILLER_21_3
*706 FILLER_21_313
*707 FILLER_21_325
*708 FILLER_21_333
*709 FILLER_21_337
*710 FILLER_21_349
*711 FILLER_21_355
*712 FILLER_21_360
*713 FILLER_21_39
*714 FILLER_21_45
*715 FILLER_21_53
*716 FILLER_21_57
*717 FILLER_21_61
*718 FILLER_21_64
*719 FILLER_21_76
*720 FILLER_21_88
*721 FILLER_22_109
*722 FILLER_22_121
*723 FILLER_22_133
*724 FILLER_22_139
*725 FILLER_22_141
*726 FILLER_22_15
*727 FILLER_22_153
*728 FILLER_22_165
*729 FILLER_22_177
*730 FILLER_22_189
*731 FILLER_22_195
*732 FILLER_22_197
*733 FILLER_22_209
*734 FILLER_22_221
*735 FILLER_22_233
*736 FILLER_22_245
*737 FILLER_22_251
*738 FILLER_22_253
*739 FILLER_22_265
*740 FILLER_22_27
*741 FILLER_22_277
*742 FILLER_22_289
*743 FILLER_22_29
*744 FILLER_22_3
*745 FILLER_22_301
*746 FILLER_22_307
*747 FILLER_22_309
*748 FILLER_22_321
*749 FILLER_22_333
*750 FILLER_22_345
*751 FILLER_22_357
*752 FILLER_22_363
*753 FILLER_22_41
*754 FILLER_22_62
*755 FILLER_22_68
*756 FILLER_22_80
*757 FILLER_22_85
*758 FILLER_22_97
*759 FILLER_23_105
*760 FILLER_23_111
*761 FILLER_23_113
*762 FILLER_23_125
*763 FILLER_23_137
*764 FILLER_23_146
*765 FILLER_23_15
*766 FILLER_23_155
*767 FILLER_23_167
*768 FILLER_23_169
*769 FILLER_23_181
*770 FILLER_23_193
*771 FILLER_23_205
*772 FILLER_23_220
*773 FILLER_23_227
*774 FILLER_23_239
*775 FILLER_23_251
*776 FILLER_23_263
*777 FILLER_23_27
*778 FILLER_23_275
*779 FILLER_23_279
*780 FILLER_23_281
*781 FILLER_23_293
*782 FILLER_23_3
*783 FILLER_23_314
*784 FILLER_23_326
*785 FILLER_23_334
*786 FILLER_23_337
*787 FILLER_23_349
*788 FILLER_23_361
*789 FILLER_23_39
*790 FILLER_23_51
*791 FILLER_23_55
*792 FILLER_23_57
*793 FILLER_23_65
*794 FILLER_23_69
*795 FILLER_23_81
*796 FILLER_23_93
*797 FILLER_24_109
*798 FILLER_24_121
*799 FILLER_24_133
*800 FILLER_24_136
*801 FILLER_24_15
*802 FILLER_24_161
*803 FILLER_24_173
*804 FILLER_24_185
*805 FILLER_24_193
*806 FILLER_24_197
*807 FILLER_24_229
*808 FILLER_24_241
*809 FILLER_24_249
*810 FILLER_24_253
*811 FILLER_24_265
*812 FILLER_24_27
*813 FILLER_24_277
*814 FILLER_24_289
*815 FILLER_24_29
*816 FILLER_24_3
*817 FILLER_24_301
*818 FILLER_24_307
*819 FILLER_24_309
*820 FILLER_24_321
*821 FILLER_24_333
*822 FILLER_24_345
*823 FILLER_24_357
*824 FILLER_24_363
*825 FILLER_24_41
*826 FILLER_24_53
*827 FILLER_24_57
*828 FILLER_24_67
*829 FILLER_24_76
*830 FILLER_24_85
*831 FILLER_24_97
*832 FILLER_25_111
*833 FILLER_25_113
*834 FILLER_25_125
*835 FILLER_25_137
*836 FILLER_25_149
*837 FILLER_25_15
*838 FILLER_25_154
*839 FILLER_25_166
*840 FILLER_25_169
*841 FILLER_25_181
*842 FILLER_25_193
*843 FILLER_25_205
*844 FILLER_25_213
*845 FILLER_25_217
*846 FILLER_25_223
*847 FILLER_25_234
*848 FILLER_25_246
*849 FILLER_25_258
*850 FILLER_25_27
*851 FILLER_25_270
*852 FILLER_25_278
*853 FILLER_25_281
*854 FILLER_25_289
*855 FILLER_25_3
*856 FILLER_25_300
*857 FILLER_25_307
*858 FILLER_25_319
*859 FILLER_25_331
*860 FILLER_25_335
*861 FILLER_25_337
*862 FILLER_25_349
*863 FILLER_25_361
*864 FILLER_25_39
*865 FILLER_25_51
*866 FILLER_25_55
*867 FILLER_25_57
*868 FILLER_25_81
*869 FILLER_25_87
*870 FILLER_25_99
*871 FILLER_26_109
*872 FILLER_26_121
*873 FILLER_26_133
*874 FILLER_26_139
*875 FILLER_26_141
*876 FILLER_26_153
*877 FILLER_26_165
*878 FILLER_26_17
*879 FILLER_26_177
*880 FILLER_26_189
*881 FILLER_26_195
*882 FILLER_26_197
*883 FILLER_26_209
*884 FILLER_26_221
*885 FILLER_26_233
*886 FILLER_26_245
*887 FILLER_26_25
*888 FILLER_26_251
*889 FILLER_26_253
*890 FILLER_26_265
*891 FILLER_26_277
*892 FILLER_26_289
*893 FILLER_26_29
*894 FILLER_26_301
*895 FILLER_26_307
*896 FILLER_26_309
*897 FILLER_26_321
*898 FILLER_26_333
*899 FILLER_26_345
*900 FILLER_26_353
*901 FILLER_26_360
*902 FILLER_26_41
*903 FILLER_26_5
*904 FILLER_26_53
*905 FILLER_26_62
*906 FILLER_26_74
*907 FILLER_26_82
*908 FILLER_26_85
*909 FILLER_26_97
*910 FILLER_27_109
*911 FILLER_27_117
*912 FILLER_27_129
*913 FILLER_27_13
*914 FILLER_27_137
*915 FILLER_27_141
*916 FILLER_27_153
*917 FILLER_27_165
*918 FILLER_27_169
*919 FILLER_27_181
*920 FILLER_27_188
*921 FILLER_27_197
*922 FILLER_27_209
*923 FILLER_27_221
*924 FILLER_27_225
*925 FILLER_27_237
*926 FILLER_27_249
*927 FILLER_27_25
*928 FILLER_27_253
*929 FILLER_27_261
*930 FILLER_27_266
*931 FILLER_27_278
*932 FILLER_27_281
*933 FILLER_27_293
*934 FILLER_27_305
*935 FILLER_27_309
*936 FILLER_27_321
*937 FILLER_27_33
*938 FILLER_27_333
*939 FILLER_27_337
*940 FILLER_27_344
*941 FILLER_27_352
*942 FILLER_27_360
*943 FILLER_27_45
*944 FILLER_27_53
*945 FILLER_27_57
*946 FILLER_27_69
*947 FILLER_27_81
*948 FILLER_27_85
*949 FILLER_27_97
*950 FILLER_2_109
*951 FILLER_2_121
*952 FILLER_2_129
*953 FILLER_2_137
*954 FILLER_2_141
*955 FILLER_2_15
*956 FILLER_2_153
*957 FILLER_2_165
*958 FILLER_2_177
*959 FILLER_2_189
*960 FILLER_2_195
*961 FILLER_2_197
*962 FILLER_2_209
*963 FILLER_2_221
*964 FILLER_2_227
*965 FILLER_2_238
*966 FILLER_2_244
*967 FILLER_2_248
*968 FILLER_2_258
*969 FILLER_2_27
*970 FILLER_2_270
*971 FILLER_2_282
*972 FILLER_2_29
*973 FILLER_2_294
*974 FILLER_2_3
*975 FILLER_2_301
*976 FILLER_2_307
*977 FILLER_2_309
*978 FILLER_2_322
*979 FILLER_2_326
*980 FILLER_2_333
*981 FILLER_2_345
*982 FILLER_2_357
*983 FILLER_2_363
*984 FILLER_2_41
*985 FILLER_2_49
*986 FILLER_2_61
*987 FILLER_2_73
*988 FILLER_2_81
*989 FILLER_2_85
*990 FILLER_2_97
*991 FILLER_3_105
*992 FILLER_3_111
*993 FILLER_3_116
*994 FILLER_3_132
*995 FILLER_3_139
*996 FILLER_3_15
*997 FILLER_3_151
*998 FILLER_3_161
*999 FILLER_3_167
*1000 FILLER_3_169
*1001 FILLER_3_181
*1002 FILLER_3_193
*1003 FILLER_3_205
*1004 FILLER_3_217
*1005 FILLER_3_223
*1006 FILLER_3_225
*1007 FILLER_3_23
*1008 FILLER_3_237
*1009 FILLER_3_249
*1010 FILLER_3_261
*1011 FILLER_3_273
*1012 FILLER_3_279
*1013 FILLER_3_281
*1014 FILLER_3_293
*1015 FILLER_3_3
*1016 FILLER_3_305
*1017 FILLER_3_317
*1018 FILLER_3_329
*1019 FILLER_3_335
*1020 FILLER_3_337
*1021 FILLER_3_349
*1022 FILLER_3_355
*1023 FILLER_3_360
*1024 FILLER_3_46
*1025 FILLER_3_52
*1026 FILLER_3_57
*1027 FILLER_3_69
*1028 FILLER_3_81
*1029 FILLER_3_93
*1030 FILLER_4_109
*1031 FILLER_4_121
*1032 FILLER_4_127
*1033 FILLER_4_139
*1034 FILLER_4_141
*1035 FILLER_4_15
*1036 FILLER_4_153
*1037 FILLER_4_165
*1038 FILLER_4_177
*1039 FILLER_4_185
*1040 FILLER_4_190
*1041 FILLER_4_202
*1042 FILLER_4_214
*1043 FILLER_4_226
*1044 FILLER_4_238
*1045 FILLER_4_250
*1046 FILLER_4_253
*1047 FILLER_4_265
*1048 FILLER_4_27
*1049 FILLER_4_277
*1050 FILLER_4_289
*1051 FILLER_4_29
*1052 FILLER_4_3
*1053 FILLER_4_301
*1054 FILLER_4_307
*1055 FILLER_4_321
*1056 FILLER_4_333
*1057 FILLER_4_345
*1058 FILLER_4_357
*1059 FILLER_4_363
*1060 FILLER_4_41
*1061 FILLER_4_53
*1062 FILLER_4_60
*1063 FILLER_4_72
*1064 FILLER_4_85
*1065 FILLER_4_97
*1066 FILLER_5_105
*1067 FILLER_5_111
*1068 FILLER_5_113
*1069 FILLER_5_124
*1070 FILLER_5_136
*1071 FILLER_5_148
*1072 FILLER_5_15
*1073 FILLER_5_160
*1074 FILLER_5_169
*1075 FILLER_5_181
*1076 FILLER_5_193
*1077 FILLER_5_199
*1078 FILLER_5_204
*1079 FILLER_5_212
*1080 FILLER_5_225
*1081 FILLER_5_249
*1082 FILLER_5_261
*1083 FILLER_5_27
*1084 FILLER_5_273
*1085 FILLER_5_279
*1086 FILLER_5_281
*1087 FILLER_5_293
*1088 FILLER_5_3
*1089 FILLER_5_305
*1090 FILLER_5_317
*1091 FILLER_5_329
*1092 FILLER_5_335
*1093 FILLER_5_337
*1094 FILLER_5_349
*1095 FILLER_5_361
*1096 FILLER_5_39
*1097 FILLER_5_51
*1098 FILLER_5_55
*1099 FILLER_5_57
*1100 FILLER_5_69
*1101 FILLER_5_81
*1102 FILLER_5_93
*1103 FILLER_6_105
*1104 FILLER_6_116
*1105 FILLER_6_128
*1106 FILLER_6_141
*1107 FILLER_6_15
*1108 FILLER_6_153
*1109 FILLER_6_165
*1110 FILLER_6_177
*1111 FILLER_6_189
*1112 FILLER_6_195
*1113 FILLER_6_197
*1114 FILLER_6_209
*1115 FILLER_6_221
*1116 FILLER_6_233
*1117 FILLER_6_245
*1118 FILLER_6_251
*1119 FILLER_6_253
*1120 FILLER_6_265
*1121 FILLER_6_27
*1122 FILLER_6_277
*1123 FILLER_6_289
*1124 FILLER_6_29
*1125 FILLER_6_3
*1126 FILLER_6_301
*1127 FILLER_6_307
*1128 FILLER_6_309
*1129 FILLER_6_321
*1130 FILLER_6_333
*1131 FILLER_6_345
*1132 FILLER_6_357
*1133 FILLER_6_363
*1134 FILLER_6_40
*1135 FILLER_6_46
*1136 FILLER_6_52
*1137 FILLER_6_58
*1138 FILLER_6_70
*1139 FILLER_6_82
*1140 FILLER_6_85
*1141 FILLER_6_97
*1142 FILLER_7_105
*1143 FILLER_7_111
*1144 FILLER_7_113
*1145 FILLER_7_126
*1146 FILLER_7_138
*1147 FILLER_7_15
*1148 FILLER_7_150
*1149 FILLER_7_162
*1150 FILLER_7_169
*1151 FILLER_7_181
*1152 FILLER_7_193
*1153 FILLER_7_205
*1154 FILLER_7_217
*1155 FILLER_7_223
*1156 FILLER_7_225
*1157 FILLER_7_237
*1158 FILLER_7_249
*1159 FILLER_7_261
*1160 FILLER_7_27
*1161 FILLER_7_273
*1162 FILLER_7_279
*1163 FILLER_7_281
*1164 FILLER_7_296
*1165 FILLER_7_3
*1166 FILLER_7_308
*1167 FILLER_7_320
*1168 FILLER_7_332
*1169 FILLER_7_349
*1170 FILLER_7_361
*1171 FILLER_7_39
*1172 FILLER_7_43
*1173 FILLER_7_55
*1174 FILLER_7_57
*1175 FILLER_7_69
*1176 FILLER_7_81
*1177 FILLER_7_93
*1178 FILLER_8_109
*1179 FILLER_8_115
*1180 FILLER_8_122
*1181 FILLER_8_134
*1182 FILLER_8_141
*1183 FILLER_8_15
*1184 FILLER_8_153
*1185 FILLER_8_165
*1186 FILLER_8_177
*1187 FILLER_8_189
*1188 FILLER_8_195
*1189 FILLER_8_197
*1190 FILLER_8_208
*1191 FILLER_8_217
*1192 FILLER_8_224
*1193 FILLER_8_236
*1194 FILLER_8_248
*1195 FILLER_8_253
*1196 FILLER_8_265
*1197 FILLER_8_27
*1198 FILLER_8_277
*1199 FILLER_8_289
*1200 FILLER_8_29
*1201 FILLER_8_3
*1202 FILLER_8_301
*1203 FILLER_8_307
*1204 FILLER_8_309
*1205 FILLER_8_317
*1206 FILLER_8_321
*1207 FILLER_8_333
*1208 FILLER_8_345
*1209 FILLER_8_353
*1210 FILLER_8_360
*1211 FILLER_8_37
*1212 FILLER_8_41
*1213 FILLER_8_49
*1214 FILLER_8_61
*1215 FILLER_8_73
*1216 FILLER_8_81
*1217 FILLER_8_85
*1218 FILLER_8_97
*1219 FILLER_9_105
*1220 FILLER_9_111
*1221 FILLER_9_113
*1222 FILLER_9_119
*1223 FILLER_9_127
*1224 FILLER_9_139
*1225 FILLER_9_145
*1226 FILLER_9_149
*1227 FILLER_9_161
*1228 FILLER_9_167
*1229 FILLER_9_169
*1230 FILLER_9_17
*1231 FILLER_9_181
*1232 FILLER_9_193
*1233 FILLER_9_205
*1234 FILLER_9_217
*1235 FILLER_9_223
*1236 FILLER_9_225
*1237 FILLER_9_237
*1238 FILLER_9_249
*1239 FILLER_9_25
*1240 FILLER_9_261
*1241 FILLER_9_273
*1242 FILLER_9_276
*1243 FILLER_9_290
*1244 FILLER_9_302
*1245 FILLER_9_314
*1246 FILLER_9_326
*1247 FILLER_9_334
*1248 FILLER_9_337
*1249 FILLER_9_349
*1250 FILLER_9_361
*1251 FILLER_9_47
*1252 FILLER_9_5
*1253 FILLER_9_55
*1254 FILLER_9_57
*1255 FILLER_9_69
*1256 FILLER_9_81
*1257 FILLER_9_93
*1258 PHY_0
*1259 PHY_1
*1260 PHY_10
*1261 PHY_11
*1262 PHY_12
*1263 PHY_13
*1264 PHY_14
*1265 PHY_15
*1266 PHY_16
*1267 PHY_17
*1268 PHY_18
*1269 PHY_19
*1270 PHY_2
*1271 PHY_20
*1272 PHY_21
*1273 PHY_22
*1274 PHY_23
*1275 PHY_24
*1276 PHY_25
*1277 PHY_26
*1278 PHY_27
*1279 PHY_28
*1280 PHY_29
*1281 PHY_3
*1282 PHY_30
*1283 PHY_31
*1284 PHY_32
*1285 PHY_33
*1286 PHY_34
*1287 PHY_35
*1288 PHY_36
*1289 PHY_37
*1290 PHY_38
*1291 PHY_39
*1292 PHY_4
*1293 PHY_40
*1294 PHY_41
*1295 PHY_42
*1296 PHY_43
*1297 PHY_44
*1298 PHY_45
*1299 PHY_46
*1300 PHY_47
*1301 PHY_48
*1302 PHY_49
*1303 PHY_5
*1304 PHY_50
*1305 PHY_51
*1306 PHY_52
*1307 PHY_53
*1308 PHY_54
*1309 PHY_55
*1310 PHY_6
*1311 PHY_7
*1312 PHY_8
*1313 PHY_9
*1314 TAP_100
*1315 TAP_101
*1316 TAP_102
*1317 TAP_103
*1318 TAP_104
*1319 TAP_105
*1320 TAP_106
*1321 TAP_107
*1322 TAP_108
*1323 TAP_109
*1324 TAP_110
*1325 TAP_111
*1326 TAP_112
*1327 TAP_113
*1328 TAP_114
*1329 TAP_115
*1330 TAP_116
*1331 TAP_117
*1332 TAP_118
*1333 TAP_119
*1334 TAP_120
*1335 TAP_121
*1336 TAP_122
*1337 TAP_123
*1338 TAP_124
*1339 TAP_125
*1340 TAP_126
*1341 TAP_127
*1342 TAP_128
*1343 TAP_129
*1344 TAP_130
*1345 TAP_131
*1346 TAP_132
*1347 TAP_133
*1348 TAP_134
*1349 TAP_135
*1350 TAP_136
*1351 TAP_137
*1352 TAP_138
*1353 TAP_139
*1354 TAP_140
*1355 TAP_141
*1356 TAP_142
*1357 TAP_143
*1358 TAP_144
*1359 TAP_145
*1360 TAP_146
*1361 TAP_147
*1362 TAP_148
*1363 TAP_149
*1364 TAP_150
*1365 TAP_151
*1366 TAP_152
*1367 TAP_153
*1368 TAP_154
*1369 TAP_155
*1370 TAP_156
*1371 TAP_157
*1372 TAP_158
*1373 TAP_159
*1374 TAP_160
*1375 TAP_161
*1376 TAP_162
*1377 TAP_163
*1378 TAP_164
*1379 TAP_165
*1380 TAP_166
*1381 TAP_167
*1382 TAP_168
*1383 TAP_169
*1384 TAP_170
*1385 TAP_171
*1386 TAP_172
*1387 TAP_173
*1388 TAP_174
*1389 TAP_175
*1390 TAP_176
*1391 TAP_177
*1392 TAP_178
*1393 TAP_179
*1394 TAP_180
*1395 TAP_181
*1396 TAP_182
*1397 TAP_183
*1398 TAP_184
*1399 TAP_185
*1400 TAP_186
*1401 TAP_187
*1402 TAP_188
*1403 TAP_189
*1404 TAP_190
*1405 TAP_191
*1406 TAP_192
*1407 TAP_193
*1408 TAP_194
*1409 TAP_195
*1410 TAP_196
*1411 TAP_197
*1412 TAP_198
*1413 TAP_199
*1414 TAP_200
*1415 TAP_201
*1416 TAP_202
*1417 TAP_203
*1418 TAP_204
*1419 TAP_205
*1420 TAP_206
*1421 TAP_207
*1422 TAP_208
*1423 TAP_209
*1424 TAP_210
*1425 TAP_211
*1426 TAP_212
*1427 TAP_213
*1428 TAP_214
*1429 TAP_215
*1430 TAP_216
*1431 TAP_217
*1432 TAP_218
*1433 TAP_219
*1434 TAP_220
*1435 TAP_221
*1436 TAP_222
*1437 TAP_223
*1438 TAP_224
*1439 TAP_225
*1440 TAP_226
*1441 TAP_227
*1442 TAP_228
*1443 TAP_229
*1444 TAP_230
*1445 TAP_231
*1446 TAP_232
*1447 TAP_233
*1448 TAP_234
*1449 TAP_235
*1450 TAP_56
*1451 TAP_57
*1452 TAP_58
*1453 TAP_59
*1454 TAP_60
*1455 TAP_61
*1456 TAP_62
*1457 TAP_63
*1458 TAP_64
*1459 TAP_65
*1460 TAP_66
*1461 TAP_67
*1462 TAP_68
*1463 TAP_69
*1464 TAP_70
*1465 TAP_71
*1466 TAP_72
*1467 TAP_73
*1468 TAP_74
*1469 TAP_75
*1470 TAP_76
*1471 TAP_77
*1472 TAP_78
*1473 TAP_79
*1474 TAP_80
*1475 TAP_81
*1476 TAP_82
*1477 TAP_83
*1478 TAP_84
*1479 TAP_85
*1480 TAP_86
*1481 TAP_87
*1482 TAP_88
*1483 TAP_89
*1484 TAP_90
*1485 TAP_91
*1486 TAP_92
*1487 TAP_93
*1488 TAP_94
*1489 TAP_95
*1490 TAP_96
*1491 TAP_97
*1492 TAP_98
*1493 TAP_99
*1494 _071_
*1495 _072_
*1496 _073_
*1497 _074_
*1498 _075_
*1499 _076_
*1500 _077_
*1501 _078_
*1502 _079_
*1503 _080_
*1504 _081_
*1505 _082_
*1506 _083_
*1507 _084_
*1508 _085_
*1509 _086_
*1510 _087_
*1511 _088_
*1512 _089_
*1513 _090_
*1514 _091_
*1515 _092_
*1516 _093_
*1517 _094_
*1518 _095_
*1519 _096_
*1520 _097_
*1521 _098_
*1522 _099_
*1523 _100_
*1524 _101_
*1525 _102_
*1526 _103_
*1527 _104_
*1528 _105_
*1529 _106_
*1530 _107_
*1531 _108_
*1532 _109_
*1533 _110_
*1534 _111_
*1535 _112_
*1536 _113_
*1537 _114_
*1538 _115_
*1539 _116_
*1540 _117_
*1541 _118_
*1542 _119_
*1543 _120_
*1544 _121_
*1545 _122_
*1546 _123_
*1547 _124_
*1548 _125_
*1549 _126_
*1550 _127_
*1551 _128_
*1552 _129_
*1553 _130_
*1554 _131_
*1555 _132_
*1556 _133_
*1557 _134_
*1558 _135_
*1559 _136_
*1560 _137_
*1561 _138_
*1562 _139_
*1563 _140_
*1564 _141_
*1565 _142_
*1566 _143_
*1567 _144_
*1568 _145_
*1569 _146_
*1570 _147_
*1571 _148_
*1572 _149_
*1573 _150_
*1574 _151_
*1575 _152_
*1576 _153_
*1577 _154_
*1578 _155_
*1579 _156_
*1580 _157_
*1581 _158_
*1582 _159_
*1583 _160_
*1584 _161_
*1585 _162_
*1586 _163_
*1587 _164_
*1588 _165_
*1589 _166_
*1590 _167_
*1591 _168_
*1592 clkbuf_0_clk
*1593 clkbuf_1_0__f_clk
*1594 clkbuf_1_1__f_clk
*1595 input1
*1596 input2
*1597 input3
*1598 input4
*1599 input5
*1600 input6
*1601 input7
*1602 output10
*1603 output11
*1604 output12
*1605 output13
*1606 output14
*1607 output15
*1608 output16
*1609 output17
*1610 output18
*1611 output19
*1612 output20
*1613 output21
*1614 output22
*1615 output23
*1616 output8
*1617 output9
*1618 repeater24
*1619 rlbp_25

*PORTS
ce_d1 I
ce_d2 I
ce_d3 I
clk I
control_signals[0] O
control_signals[1] O
d[0] I
d[1] I
d[2] I
d[3] I
data_in I
data_out[0] O
data_out[1] O
data_out[2] O
data_out[3] O
data_sel[0] I
data_sel[1] I
gpio_start I
logic_analyzer_start I
q1_1 O
q1_2 O
q1_3 O
q2_1 O
q2_2 O
q2_3 O
q3_1 O
q3_2 O
q3_3 O
reset I
reset_fsm O
rlbp_done O

*D_NET *1 0.000453264
*CONN
*P ce_d1 I
*I *1595:A I *D sky130_fd_sc_hd__buf_2
*I *173:DIODE I *D sky130_fd_sc_hd__diode_2
*CAP
1 ce_d1 0.000158817
2 *1595:A 5.72207e-05
3 *173:DIODE 1.05939e-05
4 *1:7 0.000226632
*RES
1 ce_d1 *1:7 4.04607 
2 *1:7 *173:DIODE 18.5768 
3 *1:7 *1595:A 19.7911 
*END

*D_NET *2 0.000453264
*CONN
*P ce_d2 I
*I *1596:A I *D sky130_fd_sc_hd__dlymetal6s2s_1
*I *174:DIODE I *D sky130_fd_sc_hd__diode_2
*CAP
1 ce_d2 0.000158817
2 *1596:A 5.72207e-05
3 *174:DIODE 1.05939e-05
4 *2:7 0.000226632
*RES
1 ce_d2 *2:7 4.04607 
2 *2:7 *174:DIODE 18.5768 
3 *2:7 *1596:A 19.7911 
*END

*D_NET *3 0.000534929
*CONN
*P ce_d3 I
*I *1597:A I *D sky130_fd_sc_hd__dlymetal6s2s_1
*I *175:DIODE I *D sky130_fd_sc_hd__diode_2
*CAP
1 ce_d3 0.000192725
2 *1597:A 0
3 *175:DIODE 7.474e-05
4 *3:8 0.000267465
*RES
1 ce_d3 *3:8 4.93 
2 *3:8 *175:DIODE 20.2464 
3 *3:8 *1597:A 18.3 
*END

*D_NET *4 0.00908067
*CONN
*P clk I
*I *1592:A I *D sky130_fd_sc_hd__clkbuf_16
*I *172:DIODE I *D sky130_fd_sc_hd__diode_2
*CAP
1 clk 0.000511334
2 *1592:A 0.000144601
3 *172:DIODE 0
4 *4:16 0.000144601
5 *4:14 0.00125207
6 *4:11 0.0038844
7 *4:10 0.00314367
8 *1592:A *1593:A 0
9 *4:11 *176:DIODE 0
10 *4:11 *177:DIODE 0
11 *4:11 *178:DIODE 0
12 *4:11 *1537:B 0
13 *4:11 *11:8 0
14 *4:11 *18:8 0
15 *4:11 *19:12 0
16 *4:11 *117:13 0
17 *4:11 *134:7 0
18 *4:11 *137:7 0
19 *4:14 *1554:A 0
20 *4:14 *99:18 0
21 *4:14 *102:16 0
*RES
1 clk *4:10 14.6921 
2 *4:10 *4:11 54.75 
3 *4:11 *4:14 41.6071 
4 *4:14 *4:16 9 
5 *4:16 *172:DIODE 9.3 
6 *4:16 *1592:A 12.3179 
*END

*D_NET *5 0.000762605
*CONN
*P control_signals[0] O
*I *1616:X O *D sky130_fd_sc_hd__buf_2
*CAP
1 control_signals[0] 0.000381302
2 *1616:X 0.000381302
3 control_signals[0] data_out[3] 0
*RES
1 *1616:X control_signals[0] 26.554 
*END

*D_NET *6 0.00048281
*CONN
*P control_signals[1] O
*I *1617:X O *D sky130_fd_sc_hd__buf_2
*CAP
1 control_signals[1] 0.000241405
2 *1617:X 0.000241405
3 control_signals[1] *1617:A 0
*RES