*SPEF "ieee 1481-1999"
*DESIGN "rlbp_macro"
*DATE "11:11:11 Fri 11 11, 1111"
*VENDOR "OpenRCX"
*PROGRAM "Parallel Extraction"
*VERSION "1.0"
*DESIGN_FLOW "NAME_SCOPE LOCAL" "PIN_CAP NONE"
*DIVIDER /
*DELIMITER :
*BUS_DELIMITER []
*T_UNIT 1 NS
*C_UNIT 1 PF
*R_UNIT 1 OHM
*L_UNIT 1 HENRY

*NAME_MAP
*1 CLR
*2 CMP
*3 CMP_out_c
*4 OTA_out_c
*5 OTA_sh_c
*6 Pd10_a
*7 Pd10_b
*8 Pd11_a
*9 Pd11_b
*10 Pd12_a
*11 Pd12_b
*12 Pd1_a
*13 Pd1_b
*14 Pd2_a
*15 Pd2_b
*16 Pd3_a
*17 Pd3_b
*18 Pd4_a
*19 Pd4_b
*20 Pd5_a
*21 Pd5_b
*22 Pd6_a
*23 Pd6_b
*24 Pd7_a
*25 Pd7_b
*26 Pd8_a
*27 Pd8_b
*28 Pd9_a
*29 Pd9_b
*30 SH_out_c
*31 Sh
*32 Sh_cmp
*33 Sh_rst
*34 Sw1
*35 Sw2
*36 Vd1
*37 Vd2
*38 Vref_cmp_c
*39 Vref_sel_c
*40 io_in[0]
*41 io_in[10]
*42 io_in[11]
*43 io_in[12]
*44 io_in[13]
*45 io_in[14]
*46 io_in[15]
*47 io_in[16]
*48 io_in[17]
*49 io_in[18]
*50 io_in[19]
*51 io_in[1]
*52 io_in[20]
*53 io_in[21]
*54 io_in[22]
*55 io_in[23]
*56 io_in[24]
*57 io_in[25]
*58 io_in[26]
*59 io_in[27]
*60 io_in[28]
*61 io_in[29]
*62 io_in[2]
*63 io_in[30]
*64 io_in[31]
*65 io_in[32]
*66 io_in[33]
*67 io_in[34]
*68 io_in[35]
*69 io_in[36]
*70 io_in[37]
*71 io_in[3]
*72 io_in[4]
*73 io_in[5]
*74 io_in[6]
*75 io_in[7]
*76 io_in[8]
*77 io_in[9]
*78 net133
*79 net143
*80 net144
*81 net145
*82 net146
*83 net147
*84 net148
*85 net149
*86 net150
*87 net151
*88 net152
*89 net134
*90 net153
*91 net154
*92 net155
*93 net156
*94 net157
*95 net158
*96 net159
*97 net160
*98 net161
*99 net162
*100 net135
*101 net163
*102 net164
*103 net165
*104 net166
*105 net167
*106 net168
*107 net169
*108 net170
*109 net136
*110 net137
*111 net138
*112 net139
*113 net140
*114 net141
*115 net142
*116 net171
*117 net181
*118 net182
*119 net183
*120 net184
*121 net185
*122 net186
*123 net187
*124 net188
*125 net189
*126 io_out[19]
*127 net172
*128 io_out[20]
*129 io_out[21]
*130 io_out[22]
*131 io_out[23]
*132 io_out[24]
*133 io_out[25]
*134 io_out[26]
*135 io_out[27]
*136 io_out[28]
*137 io_out[29]
*138 net173
*139 io_out[30]
*140 io_out[31]
*141 io_out[32]
*142 net190
*143 net191
*144 net192
*145 net193
*146 net194
*147 net174
*148 net175
*149 net176
*150 net177
*151 net178
*152 net179
*153 net180
*154 net195
*155 net196
*156 net197
*157 la_data_in[0]
*158 la_data_in[100]
*159 la_data_in[101]
*160 la_data_in[102]
*161 la_data_in[103]
*162 la_data_in[104]
*163 la_data_in[105]
*164 la_data_in[106]
*165 la_data_in[107]
*166 la_data_in[108]
*167 la_data_in[109]
*168 la_data_in[10]
*169 la_data_in[110]
*170 la_data_in[111]
*171 la_data_in[112]
*172 la_data_in[113]
*173 la_data_in[114]
*174 la_data_in[115]
*175 la_data_in[116]
*176 la_data_in[117]
*177 la_data_in[118]
*178 la_data_in[119]
*179 la_data_in[11]
*180 la_data_in[120]
*181 la_data_in[121]
*182 la_data_in[122]
*183 la_data_in[123]
*184 la_data_in[124]
*185 la_data_in[125]
*186 la_data_in[126]
*187 la_data_in[127]
*188 la_data_in[12]
*189 la_data_in[13]
*190 la_data_in[14]
*191 la_data_in[15]
*192 la_data_in[16]
*193 la_data_in[17]
*194 la_data_in[18]
*195 la_data_in[19]
*196 la_data_in[1]
*197 la_data_in[20]
*198 la_data_in[21]
*199 la_data_in[22]
*200 la_data_in[23]
*201 la_data_in[24]
*202 la_data_in[25]
*203 la_data_in[26]
*204 la_data_in[27]
*205 la_data_in[28]
*206 la_data_in[29]
*207 la_data_in[2]
*208 la_data_in[30]
*209 la_data_in[31]
*210 la_data_in[32]
*211 la_data_in[33]
*212 la_data_in[34]
*213 la_data_in[35]
*214 la_data_in[36]
*215 la_data_in[37]
*216 la_data_in[38]
*217 la_data_in[39]
*218 la_data_in[3]
*219 la_data_in[40]
*220 la_data_in[41]
*221 la_data_in[42]
*222 la_data_in[43]
*223 la_data_in[44]
*224 la_data_in[45]
*225 la_data_in[46]
*226 la_data_in[47]
*227 la_data_in[48]
*228 la_data_in[49]
*229 la_data_in[4]
*230 la_data_in[50]
*231 la_data_in[51]
*232 la_data_in[52]
*233 la_data_in[53]
*234 la_data_in[54]
*235 la_data_in[55]
*236 la_data_in[56]
*237 la_data_in[57]
*238 la_data_in[58]
*239 la_data_in[59]
*240 la_data_in[5]
*241 la_data_in[60]
*242 la_data_in[61]
*243 la_data_in[62]
*244 la_data_in[63]
*245 la_data_in[64]
*246 la_data_in[65]
*247 la_data_in[66]
*248 la_data_in[67]
*249 la_data_in[68]
*250 la_data_in[69]
*251 la_data_in[6]
*252 la_data_in[70]
*253 la_data_in[71]
*254 la_data_in[72]
*255 la_data_in[73]
*256 la_data_in[74]
*257 la_data_in[75]
*258 la_data_in[76]
*259 la_data_in[77]
*260 la_data_in[78]
*261 la_data_in[79]
*262 la_data_in[7]
*263 la_data_in[80]
*264 la_data_in[81]
*265 la_data_in[82]
*266 la_data_in[83]
*267 la_data_in[84]
*268 la_data_in[85]
*269 la_data_in[86]
*270 la_data_in[87]
*271 la_data_in[88]
*272 la_data_in[89]
*273 la_data_in[8]
*274 la_data_in[90]
*275 la_data_in[91]
*276 la_data_in[92]
*277 la_data_in[93]
*278 la_data_in[94]
*279 la_data_in[95]
*280 la_data_in[96]
*281 la_data_in[97]
*282 la_data_in[98]
*283 la_data_in[99]
*284 la_data_in[9]
*285 net198
*286 net298
*287 net299
*288 net300
*289 net301
*290 net302
*291 net303
*292 net304
*293 net305
*294 net306
*295 net307
*296 net208
*297 net308
*298 net309
*299 net310
*300 net311
*301 net312
*302 net313
*303 net314
*304 net315
*305 net316
*306 net317
*307 net209
*308 net318
*309 net319
*310 net320
*311 net321
*312 net322
*313 net323
*314 net324
*315 net325
*316 net210
*317 net211
*318 net212
*319 net213
*320 net214
*321 net215
*322 net216
*323 net217
*324 net199
*325 net218
*326 net219
*327 net220
*328 net221
*329 net222
*330 net223
*331 net224
*332 net225
*333 net226
*334 net227
*335 net200
*336 net228
*337 net229
*338 net230
*339 net231
*340 net232
*341 net233
*342 net234
*343 net235
*344 net236
*345 net237
*346 net201
*347 net238
*348 net239
*349 net240
*350 net241
*351 net242
*352 net243
*353 net244
*354 net245
*355 net246
*356 net247
*357 net202
*358 net248
*359 net249
*360 net250
*361 net251
*362 net252
*363 net253
*364 net254
*365 net255
*366 net256
*367 net257
*368 net203
*369 net258
*370 net259
*371 net260
*372 net261
*373 net262
*374 net263
*375 net264
*376 net265
*377 net266
*378 net267
*379 net204
*380 net268
*381 net269
*382 net270
*383 net271
*384 net272
*385 net273
*386 net274
*387 net275
*388 net276
*389 net277
*390 net205
*391 net278
*392 net279
*393 net280
*394 net281
*395 net282
*396 net283
*397 net284
*398 net285
*399 net286
*400 net287
*401 net206
*402 net288
*403 net289
*404 net290
*405 net291
*406 net292
*407 net293
*408 net294
*409 net295
*410 net296
*411 net297
*412 net207
*413 la_oenb[0]
*414 la_oenb[100]
*415 la_oenb[101]
*416 la_oenb[102]
*417 la_oenb[103]
*418 la_oenb[104]
*419 la_oenb[105]
*420 la_oenb[106]
*421 la_oenb[107]
*422 la_oenb[108]
*423 la_oenb[109]
*424 la_oenb[10]
*425 la_oenb[110]
*426 la_oenb[111]
*427 la_oenb[112]
*428 la_oenb[113]
*429 la_oenb[114]
*430 la_oenb[115]
*431 la_oenb[116]
*432 la_oenb[117]
*433 la_oenb[118]
*434 la_oenb[119]
*435 la_oenb[11]
*436 la_oenb[120]
*437 la_oenb[121]
*438 la_oenb[122]
*439 la_oenb[123]
*440 la_oenb[124]
*441 la_oenb[125]
*442 la_oenb[126]
*443 la_oenb[127]
*444 la_oenb[12]
*445 la_oenb[13]
*446 la_oenb[14]
*447 la_oenb[15]
*448 la_oenb[16]
*449 la_oenb[17]
*450 la_oenb[18]
*451 la_oenb[19]
*452 la_oenb[1]
*453 la_oenb[20]
*454 la_oenb[21]
*455 la_oenb[22]
*456 la_oenb[23]
*457 la_oenb[24]
*458 la_oenb[25]
*459 la_oenb[26]
*460 la_oenb[27]
*461 la_oenb[28]
*462 la_oenb[29]
*463 la_oenb[2]
*464 la_oenb[30]
*465 la_oenb[31]
*466 la_oenb[32]
*467 la_oenb[33]
*468 la_oenb[34]
*469 la_oenb[35]
*470 la_oenb[36]
*471 la_oenb[37]
*472 la_oenb[38]
*473 la_oenb[39]
*474 la_oenb[3]
*475 la_oenb[40]
*476 la_oenb[41]
*477 la_oenb[42]
*478 la_oenb[43]
*479 la_oenb[44]
*480 la_oenb[45]
*481 la_oenb[46]
*482 la_oenb[47]
*483 la_oenb[48]
*484 la_oenb[49]
*485 la_oenb[4]
*486 la_oenb[50]
*487 la_oenb[51]
*488 la_oenb[52]
*489 la_oenb[53]
*490 la_oenb[54]
*491 la_oenb[55]
*492 la_oenb[56]
*493 la_oenb[57]
*494 la_oenb[58]
*495 la_oenb[59]
*496 la_oenb[5]
*497 la_oenb[60]
*498 la_oenb[61]
*499 la_oenb[62]
*500 la_oenb[63]
*501 la_oenb[64]
*502 la_oenb[65]
*503 la_oenb[66]
*504 la_oenb[67]
*505 la_oenb[68]
*506 la_oenb[69]
*507 la_oenb[6]
*508 la_oenb[70]
*509 la_oenb[71]
*510 la_oenb[72]
*511 la_oenb[73]
*512 la_oenb[74]
*513 la_oenb[75]
*514 la_oenb[76]
*515 la_oenb[77]
*516 la_oenb[78]
*517 la_oenb[79]
*518 la_oenb[7]
*519 la_oenb[80]
*520 la_oenb[81]
*521 la_oenb[82]
*522 la_oenb[83]
*523 la_oenb[84]
*524 la_oenb[85]
*525 la_oenb[86]
*526 la_oenb[87]
*527 la_oenb[88]
*528 la_oenb[89]
*529 la_oenb[8]
*530 la_oenb[90]
*531 la_oenb[91]
*532 la_oenb[92]
*533 la_oenb[93]
*534 la_oenb[94]
*535 la_oenb[95]
*536 la_oenb[96]
*537 la_oenb[97]
*538 la_oenb[98]
*539 la_oenb[99]
*540 la_oenb[9]
*543 wb_clk_i
*544 wb_rst_i
*545 wbs_ack_o
*546 wbs_adr_i[0]
*547 wbs_adr_i[10]
*548 wbs_adr_i[11]
*549 wbs_adr_i[12]
*550 wbs_adr_i[13]
*551 wbs_adr_i[14]
*552 wbs_adr_i[15]
*553 wbs_adr_i[16]
*554 wbs_adr_i[17]
*555 wbs_adr_i[18]
*556 wbs_adr_i[19]
*557 wbs_adr_i[1]
*558 wbs_adr_i[20]
*559 wbs_adr_i[21]
*560 wbs_adr_i[22]
*561 wbs_adr_i[23]
*562 wbs_adr_i[24]
*563 wbs_adr_i[25]
*564 wbs_adr_i[26]
*565 wbs_adr_i[27]
*566 wbs_adr_i[28]
*567 wbs_adr_i[29]
*568 wbs_adr_i[2]
*569 wbs_adr_i[30]
*570 wbs_adr_i[31]
*571 wbs_adr_i[3]
*572 wbs_adr_i[4]
*573 wbs_adr_i[5]
*574 wbs_adr_i[6]
*575 wbs_adr_i[7]
*576 wbs_adr_i[8]
*577 wbs_adr_i[9]
*578 wbs_cyc_i
*579 wbs_dat_i[0]
*580 wbs_dat_i[10]
*581 wbs_dat_i[11]
*582 wbs_dat_i[12]
*583 wbs_dat_i[13]
*584 wbs_dat_i[14]
*585 wbs_dat_i[15]
*586 wbs_dat_i[16]
*587 wbs_dat_i[17]
*588 wbs_dat_i[18]
*589 wbs_dat_i[19]
*590 wbs_dat_i[1]
*591 wbs_dat_i[20]
*592 wbs_dat_i[21]
*593 wbs_dat_i[22]
*594 wbs_dat_i[23]
*595 wbs_dat_i[24]
*596 wbs_dat_i[25]
*597 wbs_dat_i[26]
*598 wbs_dat_i[27]
*599 wbs_dat_i[28]
*600 wbs_dat_i[29]
*601 wbs_dat_i[2]
*602 wbs_dat_i[30]
*603 wbs_dat_i[31]
*604 wbs_dat_i[3]
*605 wbs_dat_i[4]
*606 wbs_dat_i[5]
*607 wbs_dat_i[6]
*608 wbs_dat_i[7]
*609 wbs_dat_i[8]
*610 wbs_dat_i[9]
*611 wbs_dat_o[0]
*612 wbs_dat_o[10]
*613 wbs_dat_o[11]
*614 net326
*615 net327
*616 net328
*617 net329
*618 net330
*619 net331
*620 net332
*621 net333
*622 wbs_dat_o[1]
*623 net334
*624 net335
*625 net336
*626 net337
*627 net338
*628 net339
*629 net340
*630 net341
*631 net342
*632 net343
*633 wbs_dat_o[2]
*634 net344
*635 net345
*636 wbs_dat_o[3]
*637 wbs_dat_o[4]
*638 wbs_dat_o[5]
*639 wbs_dat_o[6]
*640 wbs_dat_o[7]
*641 wbs_dat_o[8]
*642 wbs_dat_o[9]
*643 wbs_sel_i[0]
*644 wbs_sel_i[1]
*645 wbs_sel_i[2]
*646 wbs_sel_i[3]
*647 wbs_stb_i
*648 wbs_we_i
*649 _0000_
*650 _0001_
*651 _0002_
*652 _0003_
*653 _0004_
*654 _0005_
*655 _0006_
*656 _0007_
*657 _0008_
*658 _0009_
*659 _0010_
*660 _0011_
*661 _0012_
*662 _0013_
*663 _0014_
*664 _0015_
*665 _0016_
*666 _0017_
*667 _0018_
*668 _0019_
*669 _0020_
*670 _0021_
*671 _0022_
*672 _0023_
*673 _0024_
*674 _0025_
*675 _0026_
*676 _0027_
*677 _0028_
*678 _0029_
*679 _0030_
*680 _0031_
*681 _0032_
*682 _0033_
*683 _0034_
*684 _0035_
*685 _0036_
*686 _0037_
*687 _0038_
*688 _0039_
*689 _0040_
*690 _0041_
*691 _0042_
*692 _0043_
*693 _0044_
*694 _0045_
*695 _0046_
*696 _0047_
*697 _0048_
*698 _0049_
*699 _0050_
*700 _0051_
*701 _0052_
*702 _0053_
*703 _0054_
*704 _0055_
*705 _0056_
*706 _0057_
*707 _0058_
*708 _0059_
*709 _0060_
*710 _0061_
*711 _0062_
*712 _0063_
*713 _0064_
*714 _0065_
*715 _0066_
*716 _0067_
*717 _0068_
*718 _0069_
*719 _0070_
*720 _0071_
*721 _0072_
*722 _0073_
*723 _0074_
*724 _0075_
*725 _0076_
*726 _0077_
*727 _0078_
*728 _0079_
*729 _0080_
*730 _0081_
*731 _0082_
*732 _0083_
*733 _0084_
*734 _0085_
*735 _0086_
*736 _0087_
*737 _0088_
*738 _0089_
*739 _0090_
*740 _0091_
*741 _0092_
*742 _0093_
*743 _0094_
*744 _0095_
*745 _0096_
*746 _0097_
*747 _0098_
*748 _0099_
*749 _0100_
*750 _0101_
*751 _0102_
*752 _0103_
*753 _0104_
*754 _0105_
*755 _0106_
*756 _0107_
*757 _0108_
*758 _0109_
*759 _0110_
*760 _0111_
*761 _0112_
*762 _0113_
*763 _0114_
*764 _0115_
*765 _0116_
*766 _0117_
*767 _0118_
*768 _0119_
*769 _0120_
*770 _0121_
*771 _0122_
*772 _0123_
*773 _0124_
*774 _0125_
*775 _0126_
*776 _0127_
*777 _0128_
*778 _0129_
*779 _0130_
*780 _0131_
*781 _0132_
*782 _0133_
*783 _0134_
*784 _0135_
*785 _0136_
*786 _0137_
*787 _0138_
*788 _0139_
*789 _0140_
*790 _0141_
*791 _0142_
*792 _0143_
*793 _0144_
*794 _0145_
*795 _0146_
*796 _0147_
*797 _0148_
*798 _0149_
*799 _0150_
*800 _0151_
*801 _0152_
*802 _0153_
*803 _0154_
*804 _0155_
*805 _0156_
*806 _0157_
*807 _0158_
*808 _0159_
*809 _0160_
*810 _0161_
*811 _0162_
*812 _0163_
*813 _0164_
*814 _0165_
*815 _0166_
*816 _0167_
*817 _0168_
*818 _0169_
*819 _0170_
*820 _0171_
*821 _0172_
*822 _0173_
*823 _0174_
*824 _0175_
*825 _0176_
*826 _0177_
*827 _0178_
*828 _0179_
*829 _0180_
*830 _0181_
*831 _0182_
*832 _0183_
*833 _0184_
*834 _0185_
*835 _0186_
*836 _0187_
*837 _0188_
*838 _0189_
*839 _0190_
*840 _0191_
*841 _0192_
*842 _0193_
*843 _0194_
*844 _0195_
*845 _0196_
*846 _0197_
*847 _0198_
*848 _0199_
*849 _0200_
*850 _0201_
*851 _0202_
*852 _0203_
*853 _0204_
*854 _0205_
*855 _0206_
*856 _0207_
*857 _0208_
*858 _0209_
*859 _0210_
*860 _0211_
*861 _0212_
*862 _0213_
*863 _0214_
*864 _0215_
*865 _0216_
*866 _0217_
*867 _0218_
*868 _0219_
*869 _0220_
*870 _0221_
*871 _0222_
*872 _0223_
*873 _0224_
*874 _0225_
*875 _0226_
*876 _0227_
*877 _0228_
*878 _0229_
*879 _0230_
*880 _0231_
*881 _0232_
*882 _0233_
*883 _0234_
*884 _0235_
*885 _0236_
*886 _0237_
*887 _0238_
*888 _0239_
*889 _0240_
*890 _0241_
*891 _0242_
*892 _0243_
*893 _0244_
*894 _0245_
*895 _0246_
*896 _0247_
*897 _0248_
*898 _0249_
*899 _0250_
*900 _0251_
*901 _0252_
*902 _0253_
*903 _0254_
*904 _0255_
*905 _0256_
*906 _0257_
*907 _0258_
*908 _0259_
*909 _0260_
*910 _0261_
*911 _0262_
*912 _0263_
*913 _0264_
*914 _0265_
*915 _0266_
*916 _0267_
*917 _0268_
*918 _0269_
*919 _0270_
*920 _0271_
*921 _0272_
*922 _0273_
*923 _0274_
*924 _0275_
*925 _0276_
*926 _0277_
*927 _0278_
*928 _0279_
*929 _0280_
*930 _0281_
*931 _0282_
*932 _0283_
*933 _0284_
*934 _0285_
*935 _0286_
*936 _0287_
*937 _0288_
*938 _0289_
*939 _0290_
*940 _0291_
*941 _0292_
*942 _0293_
*943 _0294_
*944 _0295_
*945 _0296_
*946 _0297_
*947 _0298_
*948 _0299_
*949 _0300_
*950 _0301_
*951 _0302_
*952 _0303_
*953 _0304_
*954 _0305_
*955 _0306_
*956 _0307_
*957 _0308_
*958 _0309_
*959 _0310_
*960 _0311_
*961 _0312_
*962 _0313_
*963 _0314_
*964 _0315_
*965 _0316_
*966 _0317_
*967 _0318_
*968 _0319_
*969 _0320_
*970 _0321_
*971 _0322_
*972 _0323_
*973 _0324_
*974 _0325_
*975 _0326_
*976 _0327_
*977 _0328_
*978 _0329_
*979 _0330_
*980 _0331_
*981 _0332_
*982 _0333_
*983 _0334_
*984 _0335_
*985 _0336_
*986 _0337_
*987 _0338_
*988 _0339_
*989 _0340_
*990 _0341_
*991 _0342_
*992 _0343_
*993 _0344_
*994 _0345_
*995 _0346_
*996 _0347_
*997 _0348_
*998 _0349_
*999 _0350_
*1000 _0351_
*1001 _0352_
*1002 _0353_
*1003 _0354_
*1004 _0355_
*1005 _0356_
*1006 _0357_
*1007 _0358_
*1008 _0359_
*1009 _0360_
*1010 _0361_
*1011 _0362_
*1012 _0363_
*1013 _0364_
*1014 _0365_
*1015 _0366_
*1016 _0367_
*1017 _0368_
*1018 _0369_
*1019 _0370_
*1020 _0371_
*1021 _0372_
*1022 _0373_
*1023 _0374_
*1024 _0375_
*1025 _0376_
*1026 _0377_
*1027 _0378_
*1028 _0379_
*1029 _0380_
*1030 _0381_
*1031 _0382_
*1032 _0383_
*1033 _0384_
*1034 _0385_
*1035 _0386_
*1036 _0387_
*1037 _0388_
*1038 _0389_
*1039 _0390_
*1040 _0391_
*1041 _0392_
*1042 _0393_
*1043 _0394_
*1044 _0395_
*1045 _0396_
*1046 _0397_
*1047 _0398_
*1048 _0399_
*1049 _0400_
*1050 _0401_
*1051 _0402_
*1052 _0403_
*1053 _0404_
*1054 _0405_
*1055 _0406_
*1056 _0407_
*1057 _0408_
*1058 _0409_
*1059 _0410_
*1060 _0411_
*1061 _0412_
*1062 _0413_
*1063 _0414_
*1064 _0415_
*1065 _0416_
*1066 _0417_
*1067 _0418_
*1068 _0419_
*1069 _0420_
*1070 _0421_
*1071 _0422_
*1072 _0423_
*1073 _0424_
*1074 _0425_
*1075 _0426_
*1076 _0427_
*1077 _0428_
*1078 _0429_
*1079 _0430_
*1080 _0431_
*1081 _0432_
*1082 _0433_
*1083 _0434_
*1084 _0435_
*1085 _0436_
*1086 _0437_
*1087 _0438_
*1088 _0439_
*1089 _0440_
*1090 _0441_
*1091 _0442_
*1092 _0443_
*1093 _0444_
*1094 _0445_
*1095 _0446_
*1096 _0447_
*1097 _0448_
*1098 _0449_
*1099 _0450_
*1100 _0451_
*1101 _0452_
*1102 _0453_
*1103 _0454_
*1104 _0455_
*1105 _0456_
*1106 _0457_
*1107 _0458_
*1108 _0459_
*1109 _0460_
*1110 _0461_
*1111 _0462_
*1112 _0463_
*1113 _0464_
*1114 _0465_
*1115 _0466_
*1116 _0467_
*1117 _0468_
*1118 _0469_
*1119 _0470_
*1120 _0471_
*1121 _0472_
*1122 _0473_
*1123 _0474_
*1124 _0475_
*1125 _0476_
*1126 _0477_
*1127 _0478_
*1128 _0479_
*1129 _0480_
*1130 _0481_
*1131 _0482_
*1132 _0483_
*1133 _0484_
*1134 _0485_
*1135 _0486_
*1136 _0487_
*1137 _0488_
*1138 _0489_
*1139 _0490_
*1140 _0491_
*1141 _0492_
*1142 _0493_
*1143 _0494_
*1144 _0495_
*1145 _0496_
*1146 _0497_
*1147 _0498_
*1148 _0499_
*1149 _0500_
*1150 _0501_
*1151 _0502_
*1152 _0503_
*1153 _0504_
*1154 _0505_
*1155 _0506_
*1156 _0507_
*1157 _0508_
*1158 _0509_
*1159 _0510_
*1160 _0511_
*1161 _0512_
*1162 _0513_
*1163 _0514_
*1164 _0515_
*1165 _0516_
*1166 _0517_
*1167 _0518_
*1168 _0519_
*1169 _0520_
*1170 _0521_
*1171 _0522_
*1172 _0523_
*1173 _0524_
*1174 _0525_
*1175 _0526_
*1176 _0527_
*1177 _0528_
*1178 _0529_
*1179 _0530_
*1180 _0531_
*1181 _0532_
*1182 _0533_
*1183 _0534_
*1184 _0535_
*1185 _0536_
*1186 _0537_
*1187 _0538_
*1188 _0539_
*1189 _0540_
*1190 _0541_
*1191 _0542_
*1192 _0543_
*1193 _0544_
*1194 _0545_
*1195 _0546_
*1196 _0547_
*1197 _0548_
*1198 _0549_
*1199 _0550_
*1200 _0551_
*1201 _0552_
*1202 _0553_
*1203 _0554_
*1204 _0555_
*1205 _0556_
*1206 _0557_
*1207 _0558_
*1208 _0559_
*1209 _0560_
*1210 _0561_
*1211 _0562_
*1212 _0563_
*1213 _0564_
*1214 _0565_
*1215 _0566_
*1216 _0567_
*1217 _0568_
*1218 _0569_
*1219 _0570_
*1220 _0571_
*1221 _0572_
*1222 _0573_
*1223 _0574_
*1224 _0575_
*1225 _0576_
*1226 _0577_
*1227 _0578_
*1228 _0579_
*1229 _0580_
*1230 _0581_
*1231 _0582_
*1232 _0583_
*1233 _0584_
*1234 _0585_
*1235 _0586_
*1236 _0587_
*1237 _0588_
*1238 _0589_
*1239 _0590_
*1240 _0591_
*1241 _0592_
*1242 _0593_
*1243 _0594_
*1244 _0595_
*1245 _0596_
*1246 _0597_
*1247 _0598_
*1248 _0599_
*1249 _0600_
*1250 _0601_
*1251 _0602_
*1252 _0603_
*1253 _0604_
*1254 _0605_
*1255 _0606_
*1256 _0607_
*1257 _0608_
*1258 _0609_
*1259 _0610_
*1260 _0611_
*1261 _0612_
*1262 _0613_
*1263 _0614_
*1264 _0615_
*1265 _0616_
*1266 _0617_
*1267 _0618_
*1268 _0619_
*1269 _0620_
*1270 _0621_
*1271 _0622_
*1272 _0623_
*1273 _0624_
*1274 _0625_
*1275 _0626_
*1276 _0627_
*1277 _0628_
*1278 _0629_
*1279 _0630_
*1280 _0631_
*1281 _0632_
*1282 _0633_
*1283 _0634_
*1284 _0635_
*1285 _0636_
*1286 _0637_
*1287 _0638_
*1288 _0639_
*1289 _0640_
*1290 _0641_
*1291 _0642_
*1292 _0643_
*1293 _0644_
*1294 _0645_
*1295 _0646_
*1296 _0647_
*1297 _0648_
*1298 _0649_
*1299 _0650_
*1300 _0651_
*1301 _0652_
*1302 _0653_
*1303 _0654_
*1304 _0655_
*1305 _0656_
*1306 _0657_
*1307 _0658_
*1308 _0659_
*1309 _0660_
*1310 _0661_
*1311 _0662_
*1312 _0663_
*1313 _0664_
*1314 _0665_
*1315 _0666_
*1316 _0667_
*1317 _0668_
*1318 _0669_
*1319 _0670_
*1320 _0671_
*1321 _0672_
*1322 _0673_
*1323 _0674_
*1324 _0675_
*1325 _0676_
*1326 _0677_
*1327 _0678_
*1328 _0679_
*1329 _0680_
*1330 _0681_
*1331 _0682_
*1332 _0683_
*1333 _0684_
*1334 _0685_
*1335 _0686_
*1336 _0687_
*1337 _0688_
*1338 _0689_
*1339 _0690_
*1340 _0691_
*1341 _0692_
*1342 _0693_
*1343 _0694_
*1344 _0695_
*1345 _0696_
*1346 _0697_
*1347 _0698_
*1348 _0699_
*1349 _0700_
*1350 _0701_
*1351 _0702_
*1352 _0703_
*1353 _0704_
*1354 _0705_
*1355 _0706_
*1356 _0707_
*1357 _0708_
*1358 _0709_
*1359 _0710_
*1360 _0711_
*1361 _0712_
*1362 _0713_
*1363 _0714_
*1364 _0715_
*1365 _0716_
*1366 _0717_
*1367 _0718_
*1368 _0719_
*1369 _0720_
*1370 _0721_
*1371 _0722_
*1372 _0723_
*1373 _0724_
*1374 _0725_
*1375 _0726_
*1376 _0727_
*1377 _0728_
*1378 _0729_
*1379 _0730_
*1380 _0731_
*1381 _0732_
*1382 _0733_
*1383 _0734_
*1384 _0735_
*1385 _0736_
*1386 _0737_
*1387 _0738_
*1388 _0739_
*1389 _0740_
*1390 _0741_
*1391 _0742_
*1392 _0743_
*1393 _0744_
*1394 _0745_
*1395 _0746_
*1396 _0747_
*1397 _0748_
*1398 _0749_
*1399 _0750_
*1400 _0751_
*1401 _0752_
*1402 _0753_
*1403 _0754_
*1404 _0755_
*1405 _0756_
*1406 _0757_
*1407 _0758_
*1408 _0759_
*1409 _0760_
*1410 _0761_
*1411 _0762_
*1412 _0763_
*1413 _0764_
*1414 _0765_
*1415 _0766_
*1416 _0767_
*1417 _0768_
*1418 _0769_
*1419 _0770_
*1420 _0771_
*1421 _0772_
*1422 _0773_
*1423 _0774_
*1424 _0775_
*1425 _0776_
*1426 _0777_
*1427 _0778_
*1428 _0779_
*1429 _0780_
*1430 _0781_
*1431 _0782_
*1432 _0783_
*1433 _0784_
*1434 _0785_
*1435 _0786_
*1436 _0787_
*1437 _0788_
*1438 _0789_
*1439 _0790_
*1440 _0791_
*1441 _0792_
*1442 _0793_
*1443 _0794_
*1444 _0795_
*1445 _0796_
*1446 _0797_
*1447 _0798_
*1448 _0799_
*1449 _0800_
*1450 _0801_
*1451 _0802_
*1452 _0803_
*1453 _0804_
*1454 _0805_
*1455 _0806_
*1456 _0807_
*1457 _0808_
*1458 _0809_
*1459 _0810_
*1460 _0811_
*1461 _0812_
*1462 _0813_
*1463 _0814_
*1464 _0815_
*1465 _0816_
*1466 _0817_
*1467 _0818_
*1468 _0819_
*1469 _0820_
*1470 _0821_
*1471 _0822_
*1472 _0823_
*1473 _0824_
*1474 _0825_
*1475 _0826_
*1476 _0827_
*1477 _0828_
*1478 _0829_
*1479 _0830_
*1480 _0831_
*1481 _0832_
*1482 _0833_
*1483 _0834_
*1484 _0835_
*1485 _0836_
*1486 _0837_
*1487 _0838_
*1488 _0839_
*1489 _0840_
*1490 _0841_
*1491 _0842_
*1492 _0843_
*1493 _0844_
*1494 _0845_
*1495 _0846_
*1496 _0847_
*1497 _0848_
*1498 _0849_
*1499 _0850_
*1500 _0851_
*1501 _0852_
*1502 _0853_
*1503 _0854_
*1504 _0855_
*1505 _0856_
*1506 _0857_
*1507 _0858_
*1508 _0859_
*1509 _0860_
*1510 _0861_
*1511 _0862_
*1512 _0863_
*1513 _0864_
*1514 _0865_
*1515 _0866_
*1516 _0867_
*1517 _0868_
*1518 _0869_
*1519 _0870_
*1520 _0871_
*1521 _0872_
*1522 _0873_
*1523 _0874_
*1524 _0875_
*1525 _0876_
*1526 _0877_
*1527 _0878_
*1528 _0879_
*1529 _0880_
*1530 _0881_
*1531 _0882_
*1532 _0883_
*1533 _0884_
*1534 _0885_
*1535 _0886_
*1536 _0887_
*1537 _0888_
*1538 _0889_
*1539 _0890_
*1540 _0891_
*1541 _0892_
*1542 _0893_
*1543 _0894_
*1544 _0895_
*1545 _0896_
*1546 _0897_
*1547 _0898_
*1548 _0899_
*1549 _0900_
*1550 _0901_
*1551 _0902_
*1552 _0903_
*1553 _0904_
*1554 _0905_
*1555 _0906_
*1556 _0907_
*1557 _0908_
*1558 _0909_
*1559 _0910_
*1560 _0911_
*1561 _0912_
*1562 _0913_
*1563 _0914_
*1564 _0915_
*1565 _0916_
*1566 _0917_
*1567 _0918_
*1568 _0919_
*1569 _0920_
*1570 _0921_
*1571 _0922_
*1572 _0923_
*1573 _0924_
*1574 _0925_
*1575 _0926_
*1576 _0927_
*1577 _0928_
*1578 _0929_
*1579 _0930_
*1580 _0931_
*1581 _0932_
*1582 _0933_
*1583 _0934_
*1584 _0935_
*1585 _0936_
*1586 _0937_
*1587 _0938_
*1588 _0939_
*1589 _0940_
*1590 _0941_
*1591 _0942_
*1592 _0943_
*1593 _0944_
*1594 _0945_
*1595 _0946_
*1596 _0947_
*1597 _0948_
*1598 _0949_
*1599 _0950_
*1600 _0951_
*1601 _0952_
*1602 _0953_
*1603 _0954_
*1604 _0955_
*1605 _0956_
*1606 _0957_
*1607 _0958_
*1608 _0959_
*1609 _0960_
*1610 _0961_
*1611 _0962_
*1612 _0963_
*1613 _0964_
*1614 _0965_
*1615 _0966_
*1616 _0967_
*1617 _0968_
*1618 _0969_
*1619 _0970_
*1620 _0971_
*1621 _0972_
*1622 _0973_
*1623 _0974_
*1624 _0975_
*1625 _0976_
*1626 _0977_
*1627 _0978_
*1628 _0979_
*1629 _0980_
*1630 _0981_
*1631 _0982_
*1632 _0983_
*1633 _0984_
*1634 _0985_
*1635 _0986_
*1636 _0987_
*1637 _0988_
*1638 _0989_
*1639 _0990_
*1640 _0991_
*1641 _0992_
*1642 _0993_
*1643 _0994_
*1644 _0995_
*1645 _0996_
*1646 _0997_
*1647 _0998_
*1648 _0999_
*1649 _1000_
*1650 _1001_
*1651 _1002_
*1652 _1003_
*1653 _1004_
*1654 _1005_
*1655 _1006_
*1656 _1007_
*1657 _1008_
*1658 _1009_
*1659 _1010_
*1660 _1011_
*1661 _1012_
*1662 _1013_
*1663 _1014_
*1664 _1015_
*1665 _1016_
*1666 _1017_
*1667 _1018_
*1668 _1019_
*1669 _1020_
*1670 _1021_
*1671 _1022_
*1672 _1023_
*1673 _1024_
*1674 _1025_
*1675 _1026_
*1676 _1027_
*1677 _1028_
*1678 _1029_
*1679 _1030_
*1680 _1031_
*1681 _1032_
*1682 _1033_
*1683 _1034_
*1684 _1035_
*1685 _1036_
*1686 _1037_
*1687 _1038_
*1688 _1039_
*1689 _1040_
*1690 _1041_
*1691 _1042_
*1692 _1043_
*1693 _1044_
*1694 _1045_
*1695 _1046_
*1696 _1047_
*1697 _1048_
*1698 _1049_
*1699 _1050_
*1700 _1051_
*1701 _1052_
*1702 _1053_
*1703 _1054_
*1704 _1055_
*1705 _1056_
*1706 _1057_
*1707 _1058_
*1708 _1059_
*1709 _1060_
*1710 _1061_
*1711 _1062_
*1712 _1063_
*1713 _1064_
*1714 _1065_
*1715 _1066_
*1716 _1067_
*1717 _1068_
*1718 _1069_
*1719 _1070_
*1720 _1071_
*1721 _1072_
*1722 _1073_
*1723 _1074_
*1724 _1075_
*1725 _1076_
*1726 _1077_
*1727 _1078_
*1728 _1079_
*1729 _1080_
*1730 _1081_
*1731 _1082_
*1732 _1083_
*1733 _1084_
*1734 _1085_
*1735 _1086_
*1736 _1087_
*1737 _1088_
*1738 _1089_
*1739 _1090_
*1740 _1091_
*1741 _1092_
*1742 _1093_
*1743 _1094_
*1744 _1095_
*1745 _1096_
*1746 _1097_
*1747 _1098_
*1748 _1099_
*1749 _1100_
*1750 _1101_
*1751 _1102_
*1752 _1103_
*1753 _1104_
*1754 _1105_
*1755 _1106_
*1756 _1107_
*1757 _1108_
*1758 _1109_
*1759 _1110_
*1760 _1111_
*1761 _1112_
*1762 _1113_
*1763 _1114_
*1764 _1115_
*1765 _1116_
*1766 _1117_
*1767 _1118_
*1768 _1119_
*1769 _1120_
*1770 _1121_
*1771 _1122_
*1772 _1123_
*1773 _1124_
*1774 _1125_
*1775 _1126_
*1776 _1127_
*1777 _1128_
*1778 _1129_
*1779 _1130_
*1780 _1131_
*1781 _1132_
*1782 _1133_
*1783 _1134_
*1784 _1135_
*1785 _1136_
*1786 _1137_
*1787 _1138_
*1788 _1139_
*1789 _1140_
*1790 _1141_
*1791 _1142_
*1792 _1143_
*1793 _1144_
*1794 _1145_
*1795 _1146_
*1796 _1147_
*1797 _1148_
*1798 _1149_
*1799 _1150_
*1800 _1151_
*1801 _1152_
*1802 _1153_
*1803 _1154_
*1804 _1155_
*1805 _1156_
*1806 _1157_
*1807 _1158_
*1808 _1159_
*1809 _1160_
*1810 _1161_
*1811 _1162_
*1812 _1163_
*1813 _1164_
*1814 _1165_
*1815 _1166_
*1816 _1167_
*1817 _1168_
*1818 _1169_
*1819 _1170_
*1820 _1171_
*1821 _1172_
*1822 _1173_
*1823 _1174_
*1824 _1175_
*1825 _1176_
*1826 _1177_
*1827 _1178_
*1828 _1179_
*1829 _1180_
*1830 _1181_
*1831 _1182_
*1832 _1183_
*1833 _1184_
*1834 _1185_
*1835 _1186_
*1836 _1187_
*1837 _1188_
*1838 _1189_
*1839 _1190_
*1840 _1191_
*1841 _1192_
*1842 _1193_
*1843 _1194_
*1844 _1195_
*1845 _1196_
*1846 _1197_
*1847 _1198_
*1848 _1199_
*1849 _1200_
*1850 _1201_
*1851 _1202_
*1852 _1203_
*1853 _1204_
*1854 _1205_
*1855 _1206_
*1856 _1207_
*1857 _1208_
*1858 _1209_
*1859 _1210_
*1860 _1211_
*1861 _1212_
*1862 _1213_
*1863 _1214_
*1864 _1215_
*1865 _1216_
*1866 _1217_
*1867 _1218_
*1868 _1219_
*1869 _1220_
*1870 _1221_
*1871 _1222_
*1872 _1223_
*1873 _1224_
*1874 _1225_
*1875 _1226_
*1876 _1227_
*1877 _1228_
*1878 _1229_
*1879 _1230_
*1880 _1231_
*1881 _1232_
*1882 _1233_
*1883 _1234_
*1884 _1235_
*1885 _1236_
*1886 _1237_
*1887 _1238_
*1888 _1239_
*1889 _1240_
*1890 _1241_
*1891 _1242_
*1892 _1243_
*1893 _1244_
*1894 _1245_
*1895 _1246_
*1896 _1247_
*1897 _1248_
*1898 _1249_
*1899 _1250_
*1900 _1251_
*1901 _1252_
*1902 _1253_
*1903 _1254_
*1904 _1255_
*1905 _1256_
*1906 _1257_
*1907 _1258_
*1908 _1259_
*1909 _1260_
*1910 _1261_
*1911 _1262_
*1912 _1263_
*1913 _1264_
*1914 _1265_
*1915 _1266_
*1916 _1267_
*1917 _1268_
*1918 _1269_
*1919 _1270_
*1920 _1271_
*1921 _1272_
*1922 _1273_
*1923 _1274_
*1924 _1275_
*1925 _1276_
*1926 _1277_
*1927 _1278_
*1928 _1279_
*1929 _1280_
*1930 _1281_
*1931 _1282_
*1932 _1283_
*1933 _1284_
*1934 _1285_
*1935 _1286_
*1936 _1287_
*1937 _1288_
*1938 _1289_
*1939 _1290_
*1940 _1291_
*1941 _1292_
*1942 _1293_
*1943 _1294_
*1944 _1295_
*1945 _1296_
*1946 _1297_
*1947 _1298_
*1948 _1299_
*1949 _1300_
*1950 _1301_
*1951 _1302_
*1952 _1303_
*1953 _1304_
*1954 _1305_
*1955 _1306_
*1956 _1307_
*1957 _1308_
*1958 _1309_
*1959 _1310_
*1960 _1311_
*1961 _1312_
*1962 _1313_
*1963 _1314_
*1964 _1315_
*1965 _1316_
*1966 _1317_
*1967 _1318_
*1968 _1319_
*1969 _1320_
*1970 _1321_
*1971 _1322_
*1972 _1323_
*1973 _1324_
*1974 _1325_
*1975 _1326_
*1976 _1327_
*1977 _1328_
*1978 _1329_
*1979 _1330_
*1980 _1331_
*1981 _1332_
*1982 _1333_
*1983 _1334_
*1984 _1335_
*1985 _1336_
*1986 _1337_
*1987 _1338_
*1988 _1339_
*1989 _1340_
*1990 _1341_
*1991 _1342_
*1992 _1343_
*1993 _1344_
*1994 _1345_
*1995 _1346_
*1996 _1347_
*1997 _1348_
*1998 _1349_
*1999 _1350_
*2000 _1351_
*2001 _1352_
*2002 _1353_
*2003 _1354_
*2004 _1355_
*2005 _1356_
*2006 _1357_
*2007 _1358_
*2008 _1359_
*2009 _1360_
*2010 _1361_
*2011 _1362_
*2012 _1363_
*2013 _1364_
*2014 _1365_
*2015 _1366_
*2016 _1367_
*2017 _1368_
*2018 _1369_
*2019 _1370_
*2020 _1371_
*2021 _1372_
*2022 _1373_
*2023 _1374_
*2024 _1375_
*2025 _1376_
*2026 _1377_
*2027 _1378_
*2028 _1379_
*2029 _1380_
*2030 _1381_
*2031 _1382_
*2032 _1383_
*2033 _1384_
*2034 _1385_
*2035 _1386_
*2036 _1387_
*2037 _1388_
*2038 _1389_
*2039 _1390_
*2040 _1391_
*2041 _1392_
*2042 _1393_
*2043 _1394_
*2044 _1395_
*2045 _1396_
*2046 _1397_
*2047 _1398_
*2048 _1399_
*2049 _1400_
*2050 _1401_
*2051 _1402_
*2052 _1403_
*2053 _1404_
*2054 _1405_
*2055 _1406_
*2056 _1407_
*2057 _1408_
*2058 _1409_
*2059 _1410_
*2060 _1411_
*2061 _1412_
*2062 _1413_
*2063 _1414_
*2064 _1415_
*2065 _1416_
*2066 _1417_
*2067 _1418_
*2068 _1419_
*2069 _1420_
*2070 _1421_
*2071 _1422_
*2072 _1423_
*2073 _1424_
*2074 _1425_
*2075 _1426_
*2076 _1427_
*2077 _1428_
*2078 _1429_
*2079 _1430_
*2080 _1431_
*2081 _1432_
*2082 _1433_
*2083 _1434_
*2084 _1435_
*2085 _1436_
*2086 _1437_
*2087 _1438_
*2088 _1439_
*2089 _1440_
*2090 _1441_
*2091 _1442_
*2092 _1443_
*2093 _1444_
*2094 _1445_
*2095 _1446_
*2096 _1447_
*2097 _1448_
*2098 _1449_
*2099 _1450_
*2100 _1451_
*2101 _1452_
*2102 _1453_
*2103 _1454_
*2104 _1455_
*2105 _1456_
*2106 _1457_
*2107 _1458_
*2108 _1459_
*2109 _1460_
*2110 _1461_
*2111 _1462_
*2112 _1463_
*2113 _1464_
*2114 _1465_
*2115 _1466_
*2116 _1467_
*2117 _1468_
*2118 _1469_
*2119 _1470_
*2120 _1471_
*2121 _1472_
*2122 _1473_
*2123 _1474_
*2124 _1475_
*2125 _1476_
*2126 _1477_
*2127 _1478_
*2128 _1479_
*2129 _1480_
*2130 _1481_
*2131 _1482_
*2132 _1483_
*2133 _1484_
*2134 _1485_
*2135 _1486_
*2136 _1487_
*2137 _1488_
*2138 _1489_
*2139 _1490_
*2140 _1491_
*2141 _1492_
*2142 _1493_
*2143 _1494_
*2144 _1495_
*2145 _1496_
*2146 _1497_
*2147 _1498_
*2148 _1499_
*2149 _1500_
*2150 _1501_
*2151 _1502_
*2152 _1503_
*2153 _1504_
*2154 _1505_
*2155 _1506_
*2156 _1507_
*2157 _1508_
*2158 _1509_
*2159 _1510_
*2160 _1511_
*2161 _1512_
*2162 _1513_
*2163 _1514_
*2164 _1515_
*2165 _1516_
*2166 _1517_
*2167 _1518_
*2168 _1519_
*2169 _1520_
*2170 _1521_
*2171 _1522_
*2172 _1523_
*2173 _1524_
*2174 _1525_
*2175 _1526_
*2176 _1527_
*2177 _1528_
*2178 _1529_
*2179 _1530_
*2180 _1531_
*2181 _1532_
*2182 _1533_
*2183 _1534_
*2184 _1535_
*2185 _1536_
*2186 _1537_
*2187 _1538_
*2188 _1539_