*SPEF "ieee 1481-1999"
*DESIGN "user_project_wrapper"
*DATE "11:11:11 Fri 11 11, 1111"
*VENDOR "OpenRCX"
*PROGRAM "Parallel Extraction"
*VERSION "1.0"
*DESIGN_FLOW "NAME_SCOPE LOCAL" "PIN_CAP NONE"
*DIVIDER /
*DELIMITER :
*BUS_DELIMITER []
*T_UNIT 1 NS
*C_UNIT 1 PF
*R_UNIT 1 OHM
*L_UNIT 1 HENRY

*NAME_MAP
*1 gpio_analog[0]
*2 gpio_analog[10]
*3 gpio_analog[11]
*4 gpio_analog[12]
*5 gpio_analog[13]
*6 gpio_analog[14]
*7 gpio_analog[15]
*8 gpio_analog[16]
*9 gpio_analog[17]
*10 gpio_analog[1]
*11 gpio_analog[2]
*12 gpio_analog[3]
*13 gpio_analog[4]
*14 gpio_analog[5]
*15 gpio_analog[6]
*16 gpio_analog[7]
*17 gpio_analog[8]
*18 gpio_analog[9]
*19 gpio_noesd[0]
*20 gpio_noesd[10]
*21 gpio_noesd[11]
*22 gpio_noesd[12]
*23 gpio_noesd[13]
*24 gpio_noesd[14]
*25 gpio_noesd[15]
*26 gpio_noesd[16]
*27 gpio_noesd[17]
*28 gpio_noesd[1]
*29 gpio_noesd[2]
*30 gpio_noesd[3]
*31 gpio_noesd[4]
*32 gpio_noesd[5]
*33 gpio_noesd[6]
*34 gpio_noesd[7]
*35 gpio_noesd[8]
*36 gpio_noesd[9]
*37 io_analog[0]
*38 io_analog[10]
*39 io_analog[1]
*40 io_analog[2]
*41 io_analog[3]
*42 io_analog[4]
*43 io_analog[5]
*44 io_analog[6]
*45 io_analog[7]
*46 io_analog[8]
*47 io_analog[9]
*48 io_clamp_high[0]
*49 io_clamp_high[1]
*50 io_clamp_high[2]
*51 io_clamp_low[0]
*52 io_clamp_low[1]
*53 io_clamp_low[2]
*54 io_in[0]
*55 io_in[10]
*56 io_in[11]
*57 io_in[12]
*58 io_in[13]
*59 io_in[14]
*60 io_in[15]
*61 io_in[16]
*62 io_in[17]
*63 io_in[18]
*64 io_in[19]
*65 io_in[1]
*66 io_in[20]
*67 io_in[21]
*68 io_in[22]
*69 io_in[23]
*70 io_in[24]
*71 io_in[25]
*72 io_in[26]
*73 io_in[2]
*74 io_in[3]
*75 io_in[4]
*76 io_in[5]
*77 io_in[6]
*78 io_in[7]
*79 io_in[8]
*80 io_in[9]
*81 io_in_3v3[0]
*82 io_in_3v3[10]
*83 io_in_3v3[11]
*84 io_in_3v3[12]
*85 io_in_3v3[13]
*86 io_in_3v3[14]
*87 io_in_3v3[15]
*88 io_in_3v3[16]
*89 io_in_3v3[17]
*90 io_in_3v3[18]
*91 io_in_3v3[19]
*92 io_in_3v3[1]
*93 io_in_3v3[20]
*94 io_in_3v3[21]
*95 io_in_3v3[22]
*96 io_in_3v3[23]
*97 io_in_3v3[24]
*98 io_in_3v3[25]
*99 io_in_3v3[26]
*100 io_in_3v3[2]
*101 io_in_3v3[3]
*102 io_in_3v3[4]
*103 io_in_3v3[5]
*104 io_in_3v3[6]
*105 io_in_3v3[7]
*106 io_in_3v3[8]
*107 io_in_3v3[9]
*108 io_oeb[0]
*109 io_oeb[10]
*110 io_oeb[11]
*111 io_oeb[12]
*112 io_oeb[13]
*113 io_oeb[14]
*114 io_oeb[15]
*115 io_oeb[16]
*116 io_oeb[17]
*117 io_oeb[18]
*118 io_oeb[19]
*119 io_oeb[1]
*120 io_oeb[20]
*121 io_oeb[21]
*122 io_oeb[22]
*123 io_oeb[23]
*124 io_oeb[24]
*125 io_oeb[25]
*126 io_oeb[26]
*127 io_oeb[2]
*128 io_oeb[3]
*129 io_oeb[4]
*130 io_oeb[5]
*131 io_oeb[6]
*132 io_oeb[7]
*133 io_oeb[8]
*134 io_oeb[9]
*135 io_out[0]
*136 io_out[10]
*137 io_out[11]
*138 io_out[12]
*139 io_out[13]
*140 io_out[14]
*141 io_out[15]
*142 io_out[16]
*143 io_out[17]
*144 io_out[18]
*145 io_out[19]
*146 io_out[1]
*147 io_out[20]
*148 io_out[21]
*149 io_out[22]
*150 io_out[23]
*151 io_out[24]
*152 io_out[25]
*153 io_out[26]
*154 io_out[2]
*155 io_out[3]
*156 io_out[4]
*157 io_out[5]
*158 io_out[6]
*159 io_out[7]
*160 io_out[8]
*161 io_out[9]
*162 la_data_in[0]
*163 la_data_in[100]
*164 la_data_in[101]
*165 la_data_in[102]
*166 la_data_in[103]
*167 la_data_in[104]
*168 la_data_in[105]
*169 la_data_in[106]
*170 la_data_in[107]
*171 la_data_in[108]
*172 la_data_in[109]
*173 la_data_in[10]
*174 la_data_in[110]
*175 la_data_in[111]
*176 la_data_in[112]
*177 la_data_in[113]
*178 la_data_in[114]
*179 la_data_in[115]
*180 la_data_in[116]
*181 la_data_in[117]
*182 la_data_in[118]
*183 la_data_in[119]
*184 la_data_in[11]
*185 la_data_in[120]
*186 la_data_in[121]
*187 la_data_in[122]
*188 la_data_in[123]
*189 la_data_in[124]
*190 la_data_in[125]
*191 la_data_in[126]
*192 la_data_in[127]
*193 la_data_in[12]
*194 la_data_in[13]
*195 la_data_in[14]
*196 la_data_in[15]
*197 la_data_in[16]
*198 la_data_in[17]
*199 la_data_in[18]
*200 la_data_in[19]
*201 la_data_in[1]
*202 la_data_in[20]
*203 la_data_in[21]
*204 la_data_in[22]
*205 la_data_in[23]
*206 la_data_in[24]
*207 la_data_in[25]
*208 la_data_in[26]
*209 la_data_in[27]
*210 la_data_in[28]
*211 la_data_in[29]
*212 la_data_in[2]
*213 la_data_in[30]
*214 la_data_in[31]
*215 la_data_in[32]
*216 la_data_in[33]
*217 la_data_in[34]
*218 la_data_in[35]
*219 la_data_in[36]
*220 la_data_in[37]
*221 la_data_in[38]
*222 la_data_in[39]
*223 la_data_in[3]
*224 la_data_in[40]
*225 la_data_in[41]
*226 la_data_in[42]
*227 la_data_in[43]
*228 la_data_in[44]
*229 la_data_in[45]
*230 la_data_in[46]
*231 la_data_in[47]
*232 la_data_in[48]
*233 la_data_in[49]
*234 la_data_in[4]
*235 la_data_in[50]
*236 la_data_in[51]
*237 la_data_in[52]
*238 la_data_in[53]
*239 la_data_in[54]
*240 la_data_in[55]
*241 la_data_in[56]
*242 la_data_in[57]
*243 la_data_in[58]
*244 la_data_in[59]
*245 la_data_in[5]
*246 la_data_in[60]
*247 la_data_in[61]
*248 la_data_in[62]
*249 la_data_in[63]
*250 la_data_in[64]
*251 la_data_in[65]
*252 la_data_in[66]
*253 la_data_in[67]
*254 la_data_in[68]
*255 la_data_in[69]
*256 la_data_in[6]
*257 la_data_in[70]
*258 la_data_in[71]
*259 la_data_in[72]
*260 la_data_in[73]
*261 la_data_in[74]
*262 la_data_in[75]
*263 la_data_in[76]
*264 la_data_in[77]
*265 la_data_in[78]
*266 la_data_in[79]
*267 la_data_in[7]
*268 la_data_in[80]
*269 la_data_in[81]
*270 la_data_in[82]
*271 la_data_in[83]
*272 la_data_in[84]
*273 la_data_in[85]
*274 la_data_in[86]
*275 la_data_in[87]
*276 la_data_in[88]
*277 la_data_in[89]
*278 la_data_in[8]
*279 la_data_in[90]
*280 la_data_in[91]
*281 la_data_in[92]
*282 la_data_in[93]
*283 la_data_in[94]
*284 la_data_in[95]
*285 la_data_in[96]
*286 la_data_in[97]
*287 la_data_in[98]
*288 la_data_in[99]
*289 la_data_in[9]
*290 la_data_out[0]
*291 la_data_out[100]
*292 la_data_out[101]
*293 la_data_out[102]
*294 la_data_out[103]
*295 la_data_out[104]
*296 la_data_out[105]
*297 la_data_out[106]
*298 la_data_out[107]
*299 la_data_out[108]
*300 la_data_out[109]
*301 la_data_out[10]
*302 la_data_out[110]
*303 la_data_out[111]
*304 la_data_out[112]
*305 la_data_out[113]
*306 la_data_out[114]
*307 la_data_out[115]
*308 la_data_out[116]
*309 la_data_out[117]
*310 la_data_out[118]
*311 la_data_out[119]
*312 la_data_out[11]
*313 la_data_out[120]
*314 la_data_out[121]
*315 la_data_out[122]
*316 la_data_out[123]
*317 la_data_out[124]
*318 la_data_out[125]
*319 la_data_out[126]
*320 la_data_out[127]
*321 la_data_out[12]
*322 la_data_out[13]
*323 la_data_out[14]
*324 la_data_out[15]
*325 la_data_out[16]
*326 la_data_out[17]
*327 la_data_out[18]
*328 la_data_out[19]
*329 la_data_out[1]
*330 la_data_out[20]
*331 la_data_out[21]
*332 la_data_out[22]
*333 la_data_out[23]
*334 la_data_out[24]
*335 la_data_out[25]
*336 la_data_out[26]
*337 la_data_out[27]
*338 la_data_out[28]
*339 la_data_out[29]
*340 la_data_out[2]
*341 la_data_out[30]
*342 la_data_out[31]
*343 la_data_out[32]
*344 la_data_out[33]
*345 la_data_out[34]
*346 la_data_out[35]
*347 la_data_out[36]
*348 la_data_out[37]
*349 la_data_out[38]
*350 la_data_out[39]
*351 la_data_out[3]
*352 la_data_out[40]
*353 la_data_out[41]
*354 la_data_out[42]
*355 la_data_out[43]
*356 la_data_out[44]
*357 la_data_out[45]
*358 la_data_out[46]
*359 la_data_out[47]
*360 la_data_out[48]
*361 la_data_out[49]
*362 la_data_out[4]
*363 la_data_out[50]
*364 la_data_out[51]
*365 la_data_out[52]
*366 la_data_out[53]
*367 la_data_out[54]
*368 la_data_out[55]
*369 la_data_out[56]
*370 la_data_out[57]
*371 la_data_out[58]
*372 la_data_out[59]
*373 la_data_out[5]
*374 la_data_out[60]
*375 la_data_out[61]
*376 la_data_out[62]
*377 la_data_out[63]
*378 la_data_out[64]
*379 la_data_out[65]
*380 la_data_out[66]
*381 la_data_out[67]
*382 la_data_out[68]
*383 la_data_out[69]
*384 la_data_out[6]
*385 la_data_out[70]
*386 la_data_out[71]
*387 la_data_out[72]
*388 la_data_out[73]
*389 la_data_out[74]
*390 la_data_out[75]
*391 la_data_out[76]
*392 la_data_out[77]
*393 la_data_out[78]
*394 la_data_out[79]
*395 la_data_out[7]
*396 la_data_out[80]
*397 la_data_out[81]
*398 la_data_out[82]
*399 la_data_out[83]
*400 la_data_out[84]
*401 la_data_out[85]
*402 la_data_out[86]
*403 la_data_out[87]
*404 la_data_out[88]
*405 la_data_out[89]
*406 la_data_out[8]
*407 la_data_out[90]
*408 la_data_out[91]
*409 la_data_out[92]
*410 la_data_out[93]
*411 la_data_out[94]
*412 la_data_out[95]
*413 la_data_out[96]
*414 la_data_out[97]
*415 la_data_out[98]
*416 la_data_out[99]
*417 la_data_out[9]
*418 la_oenb[0]
*419 la_oenb[100]
*420 la_oenb[101]
*421 la_oenb[102]
*422 la_oenb[103]
*423 la_oenb[104]
*424 la_oenb[105]
*425 la_oenb[106]
*426 la_oenb[107]
*427 la_oenb[108]
*428 la_oenb[109]
*429 la_oenb[10]
*430 la_oenb[110]
*431 la_oenb[111]
*432 la_oenb[112]
*433 la_oenb[113]
*434 la_oenb[114]
*435 la_oenb[115]
*436 la_oenb[116]
*437 la_oenb[117]
*438 la_oenb[118]
*439 la_oenb[119]
*440 la_oenb[11]
*441 la_oenb[120]
*442 la_oenb[121]
*443 la_oenb[122]
*444 la_oenb[123]
*445 la_oenb[124]
*446 la_oenb[125]
*447 la_oenb[126]
*448 la_oenb[127]
*449 la_oenb[12]
*450 la_oenb[13]
*451 la_oenb[14]
*452 la_oenb[15]
*453 la_oenb[16]
*454 la_oenb[17]
*455 la_oenb[18]
*456 la_oenb[19]
*457 la_oenb[1]
*458 la_oenb[20]
*459 la_oenb[21]
*460 la_oenb[22]
*461 la_oenb[23]
*462 la_oenb[24]
*463 la_oenb[25]
*464 la_oenb[26]
*465 la_oenb[27]
*466 la_oenb[28]
*467 la_oenb[29]
*468 la_oenb[2]
*469 la_oenb[30]
*470 la_oenb[31]
*471 la_oenb[32]
*472 la_oenb[33]
*473 la_oenb[34]
*474 la_oenb[35]
*475 la_oenb[36]
*476 la_oenb[37]
*477 la_oenb[38]
*478 la_oenb[39]
*479 la_oenb[3]
*480 la_oenb[40]
*481 la_oenb[41]
*482 la_oenb[42]
*483 la_oenb[43]
*484 la_oenb[44]
*485 la_oenb[45]
*486 la_oenb[46]
*487 la_oenb[47]
*488 la_oenb[48]
*489 la_oenb[49]
*490 la_oenb[4]
*491 la_oenb[50]
*492 la_oenb[51]
*493 la_oenb[52]
*494 la_oenb[53]
*495 la_oenb[54]
*496 la_oenb[55]
*497 la_oenb[56]
*498 la_oenb[57]
*499 la_oenb[58]
*500 la_oenb[59]
*501 la_oenb[5]
*502 la_oenb[60]
*503 la_oenb[61]
*504 la_oenb[62]
*505 la_oenb[63]
*506 la_oenb[64]
*507 la_oenb[65]
*508 la_oenb[66]
*509 la_oenb[67]
*510 la_oenb[68]
*511 la_oenb[69]
*512 la_oenb[6]
*513 la_oenb[70]
*514 la_oenb[71]
*515 la_oenb[72]
*516 la_oenb[73]
*517 la_oenb[74]
*518 la_oenb[75]
*519 la_oenb[76]
*520 la_oenb[77]
*521 la_oenb[78]
*522 la_oenb[79]
*523 la_oenb[7]
*524 la_oenb[80]
*525 la_oenb[81]
*526 la_oenb[82]
*527 la_oenb[83]
*528 la_oenb[84]
*529 la_oenb[85]
*530 la_oenb[86]
*531 la_oenb[87]
*532 la_oenb[88]
*533 la_oenb[89]
*534 la_oenb[8]
*535 la_oenb[90]
*536 la_oenb[91]
*537 la_oenb[92]
*538 la_oenb[93]
*539 la_oenb[94]
*540 la_oenb[95]
*541 la_oenb[96]
*542 la_oenb[97]
*543 la_oenb[98]
*544 la_oenb[99]
*545 la_oenb[9]
*546 pxl_done
*547 pxl_start_in_path
*548 pxl_start_out_path
*549 serial_data_rlbp_out
*550 user_clock2
*551 user_irq[0]
*552 user_irq[1]
*553 user_irq[2]
*562 wb_clk_i
*563 wb_rst_i
*564 wbs_ack_o
*565 wbs_adr_i[0]
*566 wbs_adr_i[10]
*567 wbs_adr_i[11]
*568 wbs_adr_i[12]
*569 wbs_adr_i[13]
*570 wbs_adr_i[14]
*571 wbs_adr_i[15]
*572 wbs_adr_i[16]
*573 wbs_adr_i[17]
*574 wbs_adr_i[18]
*575 wbs_adr_i[19]
*576 wbs_adr_i[1]
*577 wbs_adr_i[20]
*578 wbs_adr_i[21]
*579 wbs_adr_i[22]
*580 wbs_adr_i[23]
*581 wbs_adr_i[24]
*582 wbs_adr_i[25]
*583 wbs_adr_i[26]
*584 wbs_adr_i[27]
*585 wbs_adr_i[28]
*586 wbs_adr_i[29]
*587 wbs_adr_i[2]
*588 wbs_adr_i[30]
*589 wbs_adr_i[31]
*590 wbs_adr_i[3]
*591 wbs_adr_i[4]
*592 wbs_adr_i[5]
*593 wbs_adr_i[6]
*594 wbs_adr_i[7]
*595 wbs_adr_i[8]
*596 wbs_adr_i[9]
*597 wbs_cyc_i
*598 wbs_dat_i[0]
*599 wbs_dat_i[10]
*600 wbs_dat_i[11]
*601 wbs_dat_i[12]
*602 wbs_dat_i[13]
*603 wbs_dat_i[14]
*604 wbs_dat_i[15]
*605 wbs_dat_i[16]
*606 wbs_dat_i[17]
*607 wbs_dat_i[18]
*608 wbs_dat_i[19]
*609 wbs_dat_i[1]
*610 wbs_dat_i[20]
*611 wbs_dat_i[21]
*612 wbs_dat_i[22]
*613 wbs_dat_i[23]
*614 wbs_dat_i[24]
*615 wbs_dat_i[25]
*616 wbs_dat_i[26]
*617 wbs_dat_i[27]
*618 wbs_dat_i[28]
*619 wbs_dat_i[29]
*620 wbs_dat_i[2]
*621 wbs_dat_i[30]
*622 wbs_dat_i[31]
*623 wbs_dat_i[3]
*624 wbs_dat_i[4]
*625 wbs_dat_i[5]
*626 wbs_dat_i[6]
*627 wbs_dat_i[7]
*628 wbs_dat_i[8]
*629 wbs_dat_i[9]
*630 wbs_dat_o[0]
*631 wbs_dat_o[10]
*632 wbs_dat_o[11]
*633 wbs_dat_o[12]
*634 wbs_dat_o[13]
*635 wbs_dat_o[14]
*636 wbs_dat_o[15]
*637 wbs_dat_o[16]
*638 wbs_dat_o[17]
*639 wbs_dat_o[18]
*640 wbs_dat_o[19]
*641 wbs_dat_o[1]
*642 wbs_dat_o[20]
*643 wbs_dat_o[21]
*644 wbs_dat_o[22]
*645 wbs_dat_o[23]
*646 wbs_dat_o[24]
*647 wbs_dat_o[25]
*648 wbs_dat_o[26]
*649 wbs_dat_o[27]
*650 wbs_dat_o[28]
*651 wbs_dat_o[29]
*652 wbs_dat_o[2]
*653 wbs_dat_o[30]
*654 wbs_dat_o[31]
*655 wbs_dat_o[3]
*656 wbs_dat_o[4]
*657 wbs_dat_o[5]
*658 wbs_dat_o[6]
*659 wbs_dat_o[7]
*660 wbs_dat_o[8]
*661 wbs_dat_o[9]
*662 wbs_sel_i[0]
*663 wbs_sel_i[1]
*664 wbs_sel_i[2]
*665 wbs_sel_i[3]
*666 wbs_stb_i
*667 wbs_we_i
*668 pixel_macro0
*669 rlbp_macro0

*PORTS
gpio_analog[0] I
gpio_analog[10] I
gpio_analog[11] I
gpio_analog[12] I
gpio_analog[13] I
gpio_analog[14] I
gpio_analog[15] I
gpio_analog[16] I
gpio_analog[17] I
gpio_analog[1] I
gpio_analog[2] I
gpio_analog[3] I
gpio_analog[4] I
gpio_analog[5] I
gpio_analog[6] I
gpio_analog[7] I
gpio_analog[8] I
gpio_analog[9] I
gpio_noesd[0] I
gpio_noesd[10] I
gpio_noesd[11] I
gpio_noesd[12] I
gpio_noesd[13] I
gpio_noesd[14] I
gpio_noesd[15] I
gpio_noesd[16] I
gpio_noesd[17] I
gpio_noesd[1] I
gpio_noesd[2] I
gpio_noesd[3] I
gpio_noesd[4] I
gpio_noesd[5] I
gpio_noesd[6] I
gpio_noesd[7] I
gpio_noesd[8] I
gpio_noesd[9] I
io_analog[0] I
io_analog[10] I
io_analog[1] I
io_analog[2] I
io_analog[3] I
io_analog[4] I
io_analog[5] I
io_analog[6] I
io_analog[7] I
io_analog[8] I
io_analog[9] I
io_clamp_high[0] I
io_clamp_high[1] I
io_clamp_high[2] I
io_clamp_low[0] I
io_clamp_low[1] I
io_clamp_low[2] I
io_in[0] I
io_in[10] I
io_in[11] I
io_in[12] I
io_in[13] I
io_in[14] I
io_in[15] I
io_in[16] I
io_in[17] I
io_in[18] I
io_in[19] I
io_in[1] I
io_in[20] I
io_in[21] I
io_in[22] I
io_in[23] I
io_in[24] I
io_in[25] I
io_in[26] I
io_in[2] I
io_in[3] I
io_in[4] I
io_in[5] I
io_in[6] I
io_in[7] I
io_in[8] I
io_in[9] I
io_in_3v3[0] I
io_in_3v3[10] I
io_in_3v3[11] I
io_in_3v3[12] I
io_in_3v3[13] I
io_in_3v3[14] I
io_in_3v3[15] I
io_in_3v3[16] I
io_in_3v3[17] I
io_in_3v3[18] I
io_in_3v3[19] I
io_in_3v3[1] I
io_in_3v3[20] I
io_in_3v3[21] I
io_in_3v3[22] I
io_in_3v3[23] I
io_in_3v3[24] I
io_in_3v3[25] I
io_in_3v3[26] I
io_in_3v3[2] I
io_in_3v3[3] I
io_in_3v3[4] I
io_in_3v3[5] I
io_in_3v3[6] I
io_in_3v3[7] I
io_in_3v3[8] I
io_in_3v3[9] I
io_oeb[0] O
io_oeb[10] O
io_oeb[11] O
io_oeb[12] O
io_oeb[13] O
io_oeb[14] O
io_oeb[15] O
io_oeb[16] O
io_oeb[17] O
io_oeb[18] O
io_oeb[19] O
io_oeb[1] O
io_oeb[20] O
io_oeb[21] O
io_oeb[22] O
io_oeb[23] O
io_oeb[24] O
io_oeb[25] O
io_oeb[26] O
io_oeb[2] O
io_oeb[3] O
io_oeb[4] O
io_oeb[5] O
io_oeb[6] O
io_oeb[7] O
io_oeb[8] O
io_oeb[9] O
io_out[0] O
io_out[10] O
io_out[11] O
io_out[12] O
io_out[13] O
io_out[14] O
io_out[15] O
io_out[16] O
io_out[17] O
io_out[18] O
io_out[19] O
io_out[1] O
io_out[20] O
io_out[21] O
io_out[22] O
io_out[23] O
io_out[24] O
io_out[25] O
io_out[26] O
io_out[2] O
io_out[3] O
io_out[4] O
io_out[5] O
io_out[6] O
io_out[7] O
io_out[8] O
io_out[9] O
la_data_in[0] I
la_data_in[100] I
la_data_in[101] I
la_data_in[102] I
la_data_in[103] I
la_data_in[104] I
la_data_in[105] I
la_data_in[106] I
la_data_in[107] I
la_data_in[108] I
la_data_in[109] I
la_data_in[10] I
la_data_in[110] I
la_data_in[111] I
la_data_in[112] I
la_data_in[113] I
la_data_in[114] I
la_data_in[115] I
la_data_in[116] I
la_data_in[117] I
la_data_in[118] I
la_data_in[119] I
la_data_in[11] I
la_data_in[120] I
la_data_in[121] I
la_data_in[122] I
la_data_in[123] I
la_data_in[124] I
la_data_in[125] I
la_data_in[126] I
la_data_in[127] I
la_data_in[12] I
la_data_in[13] I
la_data_in[14] I
la_data_in[15] I
la_data_in[16] I
la_data_in[17] I
la_data_in[18] I
la_data_in[19] I
la_data_in[1] I
la_data_in[20] I
la_data_in[21] I
la_data_in[22] I
la_data_in[23] I
la_data_in[24] I
la_data_in[25] I
la_data_in[26] I
la_data_in[27] I
la_data_in[28] I
la_data_in[29] I
la_data_in[2] I
la_data_in[30] I
la_data_in[31] I
la_data_in[32] I
la_data_in[33] I
la_data_in[34] I
la_data_in[35] I
la_data_in[36] I
la_data_in[37] I
la_data_in[38] I
la_data_in[39] I
la_data_in[3] I
la_data_in[40] I
la_data_in[41] I
la_data_in[42] I
la_data_in[43] I
la_data_in[44] I
la_data_in[45] I
la_data_in[46] I
la_data_in[47] I
la_data_in[48] I
la_data_in[49] I
la_data_in[4] I
la_data_in[50] I
la_data_in[51] I
la_data_in[52] I
la_data_in[53] I
la_data_in[54] I
la_data_in[55] I
la_data_in[56] I
la_data_in[57] I
la_data_in[58] I
la_data_in[59] I
la_data_in[5] I
la_data_in[60] I
la_data_in[61] I
la_data_in[62] I
la_data_in[63] I
la_data_in[64] I
la_data_in[65] I
la_data_in[66] I
la_data_in[67] I
la_data_in[68] I
la_data_in[69] I
la_data_in[6] I
la_data_in[70] I
la_data_in[71] I
la_data_in[72] I
la_data_in[73] I
la_data_in[74] I
la_data_in[75] I
la_data_in[76] I
la_data_in[77] I
la_data_in[78] I
la_data_in[79] I
la_data_in[7] I
la_data_in[80] I
la_data_in[81] I
la_data_in[82] I
la_data_in[83] I
la_data_in[84] I
la_data_in[85] I
la_data_in[86] I
la_data_in[87] I
la_data_in[88] I
la_data_in[89] I
la_data_in[8] I
la_data_in[90] I
la_data_in[91] I
la_data_in[92] I
la_data_in[93] I
la_data_in[94] I
la_data_in[95] I
la_data_in[96] I
la_data_in[97] I
la_data_in[98] I
la_data_in[99] I
la_data_in[9] I
la_data_out[0] O
la_data_out[100] O
la_data_out[101] O
la_data_out[102] O
la_data_out[103] O
la_data_out[104] O
la_data_out[105] O
la_data_out[106] O
la_data_out[107] O
la_data_out[108] O
la_data_out[109] O
la_data_out[10] O
la_data_out[110] O
la_data_out[111] O
la_data_out[112] O
la_data_out[113] O
la_data_out[114] O
la_data_out[115] O
la_data_out[116] O
la_data_out[117] O
la_data_out[118] O
la_data_out[119] O
la_data_out[11] O
la_data_out[120] O
la_data_out[121] O
la_data_out[122] O
la_data_out[123] O
la_data_out[124] O
la_data_out[125] O
la_data_out[126] O
la_data_out[127] O
la_data_out[12] O
la_data_out[13] O
la_data_out[14] O
la_data_out[15] O
la_data_out[16] O
la_data_out[17] O
la_data_out[18] O
la_data_out[19] O
la_data_out[1] O
la_data_out[20] O
la_data_out[21] O
la_data_out[22] O
la_data_out[23] O
la_data_out[24] O
la_data_out[25] O
la_data_out[26] O
la_data_out[27] O
la_data_out[28] O
la_data_out[29] O
la_data_out[2] O
la_data_out[30] O
la_data_out[31] O
la_data_out[32] O
la_data_out[33] O
la_data_out[34] O
la_data_out[35] O
la_data_out[36] O
la_data_out[37] O
la_data_out[38] O
la_data_out[39] O
la_data_out[3] O
la_data_out[40] O
la_data_out[41] O
la_data_out[42] O
la_data_out[43] O
la_data_out[44] O
la_data_out[45] O
la_data_out[46] O
la_data_out[47] O
la_data_out[48] O
la_data_out[49] O
la_data_out[4] O
la_data_out[50] O
la_data_out[51] O
la_data_out[52] O
la_data_out[53] O
la_data_out[54] O
la_data_out[55] O
la_data_out[56] O
la_data_out[57] O
la_data_out[58] O
la_data_out[59] O
la_data_out[5] O
la_data_out[60] O
la_data_out[61] O
la_data_out[62] O
la_data_out[63] O
la_data_out[64] O
la_data_out[65] O
la_data_out[66] O
la_data_out[67] O
la_data_out[68] O
la_data_out[69] O
la_data_out[6] O
la_data_out[70] O
la_data_out[71] O
la_data_out[72] O
la_data_out[73] O
la_data_out[74] O
la_data_out[75] O
la_data_out[76] O
la_data_out[77] O
la_data_out[78] O
la_data_out[79] O
la_data_out[7] O
la_data_out[80] O
la_data_out[81] O
la_data_out[82] O
la_data_out[83] O
la_data_out[84] O
la_data_out[85] O
la_data_out[86] O
la_data_out[87] O
la_data_out[88] O
la_data_out[89] O
la_data_out[8] O
la_data_out[90] O
la_data_out[91] O
la_data_out[92] O
la_data_out[93] O
la_data_out[94] O
la_data_out[95] O
la_data_out[96] O
la_data_out[97] O
la_data_out[98] O
la_data_out[99] O
la_data_out[9] O
la_oenb[0] I
la_oenb[100] I
la_oenb[101] I
la_oenb[102] I
la_oenb[103] I
la_oenb[104] I
la_oenb[105] I
la_oenb[106] I
la_oenb[107] I
la_oenb[108] I
la_oenb[109] I
la_oenb[10] I
la_oenb[110] I
la_oenb[111] I
la_oenb[112] I
la_oenb[113] I
la_oenb[114] I
la_oenb[115] I
la_oenb[116] I
la_oenb[117] I
la_oenb[118] I
la_oenb[119] I
la_oenb[11] I
la_oenb[120] I
la_oenb[121] I
la_oenb[122] I
la_oenb[123] I
la_oenb[124] I
la_oenb[125] I
la_oenb[126] I
la_oenb[127] I
la_oenb[12] I
la_oenb[13] I
la_oenb[14] I
la_oenb[15] I
la_oenb[16] I
la_oenb[17] I
la_oenb[18] I
la_oenb[19] I
la_oenb[1] I
la_oenb[20] I
la_oenb[21] I
la_oenb[22] I
la_oenb[23] I
la_oenb[24] I
la_oenb[25] I
la_oenb[26] I
la_oenb[27] I
la_oenb[28] I
la_oenb[29] I
la_oenb[2] I
la_oenb[30] I
la_oenb[31] I
la_oenb[32] I
la_oenb[33] I
la_oenb[34] I
la_oenb[35] I
la_oenb[36] I
la_oenb[37] I
la_oenb[38] I
la_oenb[39] I
la_oenb[3] I
la_oenb[40] I
la_oenb[41] I
la_oenb[42] I
la_oenb[43] I
la_oenb[44] I
la_oenb[45] I
la_oenb[46] I
la_oenb[47] I
la_oenb[48] I
la_oenb[49] I
la_oenb[4] I
la_oenb[50] I
la_oenb[51] I
la_oenb[52] I
la_oenb[53] I
la_oenb[54] I
la_oenb[55] I
la_oenb[56] I
la_oenb[57] I
la_oenb[58] I
la_oenb[59] I
la_oenb[5] I
la_oenb[60] I
la_oenb[61] I
la_oenb[62] I
la_oenb[63] I
la_oenb[64] I
la_oenb[65] I
la_oenb[66] I
la_oenb[67] I
la_oenb[68] I
la_oenb[69] I
la_oenb[6] I
la_oenb[70] I
la_oenb[71] I
la_oenb[72] I
la_oenb[73] I
la_oenb[74] I
la_oenb[75] I
la_oenb[76] I
la_oenb[77] I
la_oenb[78] I
la_oenb[79] I
la_oenb[7] I
la_oenb[80] I
la_oenb[81] I
la_oenb[82] I
la_oenb[83] I
la_oenb[84] I
la_oenb[85] I
la_oenb[86] I
la_oenb[87] I
la_oenb[88] I
la_oenb[89] I
la_oenb[8] I
la_oenb[90] I
la_oenb[91] I
la_oenb[92] I
la_oenb[93] I
la_oenb[94] I
la_oenb[95] I
la_oenb[96] I
la_oenb[97] I
la_oenb[98] I
la_oenb[99] I
la_oenb[9] I
pxl_done O
pxl_start_in_path I
pxl_start_out_path I
serial_data_rlbp_out O
user_clock2 I
user_irq[0] O
user_irq[1] O
user_irq[2] O
wb_clk_i I
wb_rst_i I
wbs_ack_o O
wbs_adr_i[0] I
wbs_adr_i[10] I
wbs_adr_i[11] I
wbs_adr_i[12] I
wbs_adr_i[13] I
wbs_adr_i[14] I
wbs_adr_i[15] I
wbs_adr_i[16] I
wbs_adr_i[17] I
wbs_adr_i[18] I
wbs_adr_i[19] I
wbs_adr_i[1] I
wbs_adr_i[20] I
wbs_adr_i[21] I
wbs_adr_i[22] I
wbs_adr_i[23] I
wbs_adr_i[24] I
wbs_adr_i[25] I
wbs_adr_i[26] I
wbs_adr_i[27] I
wbs_adr_i[28] I
wbs_adr_i[29] I
wbs_adr_i[2] I
wbs_adr_i[30] I
wbs_adr_i[31] I
wbs_adr_i[3] I
wbs_adr_i[4] I
wbs_adr_i[5] I
wbs_adr_i[6] I
wbs_adr_i[7] I
wbs_adr_i[8] I
wbs_adr_i[9] I
wbs_cyc_i I
wbs_dat_i[0] I
wbs_dat_i[10] I
wbs_dat_i[11] I
wbs_dat_i[12] I
wbs_dat_i[13] I
wbs_dat_i[14] I
wbs_dat_i[15] I
wbs_dat_i[16] I
wbs_dat_i[17] I
wbs_dat_i[18] I
wbs_dat_i[19] I
wbs_dat_i[1] I
wbs_dat_i[20] I
wbs_dat_i[21] I
wbs_dat_i[22] I
wbs_dat_i[23] I
wbs_dat_i[24] I
wbs_dat_i[25] I
wbs_dat_i[26] I
wbs_dat_i[27] I
wbs_dat_i[28] I
wbs_dat_i[29] I
wbs_dat_i[2] I
wbs_dat_i[30] I
wbs_dat_i[31] I
wbs_dat_i[3] I
wbs_dat_i[4] I
wbs_dat_i[5] I
wbs_dat_i[6] I
wbs_dat_i[7] I
wbs_dat_i[8] I
wbs_dat_i[9] I
wbs_dat_o[0] O
wbs_dat_o[10] O
wbs_dat_o[11] O
wbs_dat_o[12] O
wbs_dat_o[13] O
wbs_dat_o[14] O
wbs_dat_o[15] O
wbs_dat_o[16] O
wbs_dat_o[17] O
wbs_dat_o[18] O
wbs_dat_o[19] O
wbs_dat_o[1] O
wbs_dat_o[20] O
wbs_dat_o[21] O
wbs_dat_o[22] O
wbs_dat_o[23] O
wbs_dat_o[24] O
wbs_dat_o[25] O
wbs_dat_o[26] O
wbs_dat_o[27] O
wbs_dat_o[28] O
wbs_dat_o[29] O
wbs_dat_o[2] O
wbs_dat_o[30] O
wbs_dat_o[31] O
wbs_dat_o[3] O
wbs_dat_o[4] O
wbs_dat_o[5] O
wbs_dat_o[6] O
wbs_dat_o[7] O
wbs_dat_o[8] O
wbs_dat_o[9] O
wbs_sel_i[0] I
wbs_sel_i[1] I
wbs_sel_i[2] I
wbs_sel_i[3] I
wbs_stb_i I
wbs_we_i I

*D_NET *54 0.335579
*CONN
*P io_in[0] I
*I *668:io_in[0] I *D pixel_macro
*I *669:io_in[0] I *D rlbp_macro
*CAP
1 io_in[0] 0.000859435
2 *668:io_in[0] 2.60561e-05
3 *669:io_in[0] 0.00090846
4 *54:30 0.0197253
5 *54:29 0.0199585
6 *54:18 0.00266685
7 *54:14 0.0476342
8 *54:13 0.046135
9 *54:11 0.098403
10 *54:10 0.0992624
11 *669:io_in[0] *74:18 0
12 *669:io_in[0] *77:25 0
13 *669:io_in[0] *225:24 0
14 *669:io_in[0] *629:54 0
15 *54:10 *163:8 0
16 *54:14 *108:37 0
17 *54:14 *565:11 0
18 *54:18 *108:37 0
19 *54:18 *565:11 0
20 *54:29 *108:23 0
21 *54:29 *138:17 0
22 *54:29 *565:11 0
23 *54:30 *56:22 0
24 *54:30 *108:19 0
25 *54:30 *138:17 0
26 *54:30 *213:21 0
27 *54:30 *604:14 0
28 *54:30 *643:31 0
29 *54:30 *643:54 0
*RES
1 io_in[0] *54:10 20.1979 
2 *54:10 *54:11 2053.7 
3 *54:11 *54:13 9 
4 *54:13 *54:14 1201.49 
5 *54:14 *54:18 39.1429 
6 *54:18 *54:29 47.3125 
7 *54:29 *54:30 490.089 
8 *54:30 *669:io_in[0] 40.2054 
9 *54:18 *668:io_in[0] 0.678571 
*END

*D_NET *55 0.286358
*CONN
*P io_in[10] I
*I *668:io_in[10] I *D pixel_macro
*I *669:io_in[10] I *D rlbp_macro
*CAP
1 io_in[10] 0.000836396
2 *668:io_in[10] 0.000708573
3 *669:io_in[10] 0.00613073
4 *55:26 0.0268531
5 *55:25 0.0207224
6 *55:23 0.00592949
7 *55:21 0.00808599
8 *55:17 0.0101832
9 *55:16 0.0087353
10 *55:14 0.0157529
11 *55:13 0.0157529
12 *55:11 0.0829153
13 *55:10 0.0837517
14 *668:io_in[10] *668:io_oeb[10] 0
15 *668:io_in[10] *109:33 0
16 *669:io_in[10] *669:io_in[13] 0
17 *669:io_in[10] *669:io_in[4] 0
18 *669:io_in[10] *110:12 0
19 *669:io_in[10] *161:9 0
20 *669:io_in[10] *323:39 0
21 *669:io_in[10] *326:27 0
22 *669:io_in[10] *463:37 0
23 *669:io_in[10] *467:46 0
24 *55:10 *163:8 0
25 *55:14 *267:11 0
26 *55:14 *297:37 0
27 *55:17 *72:25 0
28 *55:17 *109:34 0
29 *55:17 *138:26 0
30 *55:17 *138:42 0
31 *55:17 *141:16 0
32 *55:21 *109:20 0
33 *55:21 *109:34 0
34 *55:21 *110:16 0
35 *55:21 *138:26 0
36 *55:23 *109:20 0
37 *55:23 *110:16 0
38 *55:23 *132:16 0
39 *55:26 *57:50 0
40 *55:26 *109:17 0
41 *55:26 *155:13 0
42 *55:26 *260:13 0
43 *55:26 *349:34 0
44 *55:26 *434:11 0
45 *55:26 *503:14 0
46 *55:26 *566:11 0
47 *55:26 *642:31 0
48 *55:26 *642:60 0
*RES
1 io_in[10] *55:10 19.5907 
2 *55:10 *55:11 1730.46 
3 *55:11 *55:13 9 
4 *55:13 *55:14 410.25 
5 *55:14 *55:16 9 
6 *55:16 *55:17 182.277 
7 *55:17 *55:21 30.3125 
8 *55:21 *55:23 123.75 
9 *55:23 *55:25 9 
10 *55:25 *55:26 539.723 
11 *55:26 *669:io_in[10] 44.5808 
12 *55:21 *668:io_in[10] 27.4554 
*END

*D_NET *56 0.270457
*CONN
*P io_in[11] I
*I *669:io_in[11] I *D rlbp_macro
*I *668:io_in[11] I *D pixel_macro
*CAP
1 io_in[11] 0.000554648
2 *669:io_in[11] 0.000436903
3 *668:io_in[11] 0.000483684
4 *56:25 0.00643285
5 *56:24 0.00594917
6 *56:22 0.0196889
7 *56:20 0.0206695
8 *56:15 0.00722348
9 *56:13 0.0062634
10 *56:11 0.0928203
11 *56:10 0.0923629
12 *56:8 0.00850836
13 *56:7 0.00906301
14 *668:io_in[11] *668:io_out[10] 0
15 *669:io_in[11] *110:12 0
16 *669:io_in[11] *334:51 0
17 *669:io_in[11] *338:33 0
18 *56:8 *118:36 0
19 *56:8 *375:76 0
20 *56:8 *492:8 0
21 *56:8 *595:8 0
22 *56:8 *629:8 0
23 *56:11 *57:36 0
24 *56:11 *61:28 0
25 *56:11 *111:10 0
26 *56:11 *111:32 0
27 *56:11 *123:16 0
28 *56:11 *123:22 0
29 *56:11 *151:34 0
30 *56:11 *153:10 0
31 *56:11 *161:39 0
32 *56:11 *284:38 0
33 *56:11 *321:61 0
34 *56:11 *352:56 0
35 *56:11 *360:43 0
36 *56:11 *361:47 0
37 *56:11 *368:53 0
38 *56:11 *369:45 0
39 *56:11 *399:28 0
40 *56:15 *57:22 0
41 *56:15 *57:26 0
42 *56:15 *57:28 0
43 *56:15 *57:36 0
44 *56:15 *65:30 0
45 *56:15 *80:39 0
46 *56:15 *111:10 0
47 *56:15 *134:10 0
48 *56:15 *334:48 0
49 *56:20 *76:35 0
50 *56:20 *127:13 0
51 *56:20 *213:21 0
52 *56:20 *232:21 0
53 *56:20 *350:51 0
54 *56:22 *76:35 0
55 *56:22 *213:21 0
56 *56:22 *454:14 0
57 *56:22 *604:14 0
58 *56:25 *57:54 0
59 *56:25 *79:31 0
60 *56:25 *80:17 0
61 *56:25 *159:22 0
62 *54:30 *56:22 0
*RES
1 io_in[11] *56:7 5.63153 
2 *56:7 *56:8 221.58 
3 *56:8 *56:10 9 
4 *56:10 *56:11 1927.61 
5 *56:11 *56:13 0.428571 
6 *56:13 *56:15 130.321 
7 *56:15 *56:20 34.5446 
8 *56:20 *56:22 512.866 
9 *56:22 *56:24 9 
10 *56:24 *56:25 124.161 
11 *56:25 *668:io_in[11] 21.5982 
12 *56:11 *669:io_in[11] 20.3839 
*END

*D_NET *57 0.122718
*CONN
*P io_in[12] I
*I *668:io_in[12] I *D pixel_macro
*I *669:io_in[12] I *D rlbp_macro
*CAP
1 io_in[12] 3.39416e-05
2 *668:io_in[12] 0.000546133
3 *669:io_in[12] 0.000464348
4 *57:54 0.00761703
5 *57:53 0.00707089
6 *57:51 0.0198423
7 *57:50 0.0207409
8 *57:36 0.00204469
9 *57:33 0.00162009
10 *57:28 0.00241411
11 *57:26 0.00328646
12 *57:22 0.00300122
13 *57:18 0.00241843
14 *57:13 0.00231435
15 *57:7 0.0251778
16 *57:5 0.0241253
17 *669:io_in[12] *137:7 0
18 *669:io_in[12] *343:29 0
19 *669:io_in[12] *464:33 0
20 *57:7 *395:15 0
21 *57:7 *449:23 0
22 *57:7 *453:28 0
23 *57:7 *460:33 0
24 *57:7 *649:27 0
25 *57:13 *121:18 0
26 *57:13 *131:16 0
27 *57:13 *215:45 0
28 *57:13 *349:34 0
29 *57:13 *478:25 0
30 *57:13 *639:40 0
31 *57:18 *65:30 0
32 *57:18 *73:18 0
33 *57:18 *337:60 0
34 *57:22 *65:30 0
35 *57:22 *134:10 0
36 *57:22 *337:60 0
37 *57:22 *649:30 0
38 *57:26 *134:10 0
39 *57:28 *134:10 0
40 *57:33 *669:io_in[9] 0
41 *57:33 *312:57 0
42 *57:36 *161:15 0
43 *57:36 *161:39 0
44 *57:36 *462:25 0
45 *57:50 *109:15 0
46 *57:50 *215:45 0
47 *57:50 *349:34 0
48 *57:50 *650:28 0
49 *57:51 *79:28 0
50 *57:51 *109:17 0
51 *57:54 *79:31 0
52 *57:54 *130:31 0
53 *57:54 *143:22 0
54 *55:26 *57:50 0
55 *56:11 *57:36 0
56 *56:15 *57:22 0
57 *56:15 *57:26 0
58 *56:15 *57:28 0
59 *56:15 *57:36 0
60 *56:25 *57:54 0
*RES
1 io_in[12] *57:5 0.883929 
2 *57:5 *57:7 627.455 
3 *57:7 *57:13 41.7857 
4 *57:13 *57:18 15.9196 
5 *57:18 *57:22 43.6786 
6 *57:22 *57:26 19.0357 
7 *57:26 *57:28 49.6161 
8 *57:28 *57:33 19.0357 
9 *57:33 *57:36 41.9821 
10 *57:36 *669:io_in[12] 12.0982 
11 *57:13 *57:50 41.2321 
12 *57:50 *57:51 516.804 
13 *57:51 *57:53 9 
14 *57:53 *57:54 147.571 
15 *57:54 *668:io_in[12] 23.2232 
*END

*D_NET *58 0.258872
*CONN
*P io_in[13] I
*I *668:io_in[13] I *D pixel_macro
*I *669:io_in[13] I *D rlbp_macro
*CAP
1 io_in[13] 0.000253705
2 *668:io_in[13] 0.000697653
3 *669:io_in[13] 0.00729465
4 *58:35 0.00786395
5 *58:21 0.0280031
6 *58:20 0.0207085
7 *58:18 0.00734777
8 *58:12 0.0181941
9 *58:11 0.0180126
10 *58:9 0.0751209
11 *58:7 0.0753746
12 *668:io_in[13] *668:io_out[12] 0
13 *669:io_in[13] *110:12 0
14 *669:io_in[13] *111:32 0
15 *669:io_in[13] *112:13 0
16 *669:io_in[13] *138:13 0
17 *669:io_in[13] *224:62 0
18 *669:io_in[13] *339:30 0
19 *669:io_in[13] *352:59 0
20 *669:io_in[13] *467:46 0
21 *58:12 *110:16 0
22 *58:12 *132:16 0
23 *58:12 *612:11 0
24 *58:18 *109:20 0
25 *58:18 *134:37 0
26 *58:18 *337:77 0
27 *58:18 *344:49 0
28 *58:21 *65:25 0
29 *58:21 *76:34 0
30 *58:21 *146:13 0
31 *58:21 *337:77 0
32 *58:21 *469:41 0
33 *58:21 *566:19 0
34 *58:35 *109:20 0
35 *58:35 *129:31 0
36 *58:35 *134:37 0
37 *58:35 *138:26 0
38 *58:35 *138:42 0
39 *669:io_in[10] *669:io_in[13] 0
*RES
1 io_in[13] *58:7 6.66964 